<?xml version="1.0" encoding="UTF-8"?>

<!-- generated on 05/17/20 00:00:39 by Eclipse SUMO netedit Version 1.5.0
<configuration xmlns:xsi="http://www.w3.org/2001/XMLSchema-instance" xsi:noNamespaceSchemaLocation="http://sumo.dlr.de/xsd/netconvertConfiguration.xsd">

    <output>
        <output-file value="C:\SUMO_APP\Documentation\15_05\dep\network.net.xml"/>
    </output>

    <processing>
        <offset.disable-normalization value="true"/>
    </processing>

    <junctions>
        <no-turnarounds value="true"/>
    </junctions>

    <report>
        <aggregate-warnings value="5"/>
    </report>

</configuration>
-->

<net version="1.3" junctionCornerDetail="5" limitTurnSpeed="5.50" xmlns:xsi="http://www.w3.org/2001/XMLSchema-instance" xsi:noNamespaceSchemaLocation="http://sumo.dlr.de/xsd/net_file.xsd">

    <location netOffset="0.00,0.00" convBoundary="-70.35,50.43,83.12,84.42" origBoundary="10000000000.00,10000000000.00,-10000000000.00,-10000000000.00" projParameter="!"/>

    <edge id=":gneJ0_0" function="internal">
        <lane id=":gneJ0_0_0" index="0" speed="11.35" length="14.00" shape="-25.21,60.57 -28.26,57.11 -31.13,54.62 -33.80,53.12 -36.27,52.59"/>
    </edge>
    <edge id=":gneJ0_1" function="internal">
        <lane id=":gneJ0_1_0" index="0" speed="7.40" length="18.29" shape="-25.21,60.57 -28.21,55.71 -28.32,52.27 -25.55,50.24 -19.89,49.63"/>
    </edge>
    <edge id=":gneJ0_2" function="internal">
        <lane id=":gneJ0_2_0" index="0" speed="7.38" length="18.26" shape="-25.21,60.57 -28.22,55.70 -28.34,52.28 -25.56,50.29 -19.89,49.74"/>
    </edge>
    <edge id=":gneJ0_3" function="internal">
        <lane id=":gneJ0_3_0" index="0" speed="5.52" length="9.50" shape="-19.93,52.94 -22.88,53.23 -24.33,54.26 -24.27,56.04 -22.71,58.57"/>
    </edge>
    <edge id=":gneJ0_4" function="internal">
        <lane id=":gneJ0_4_0" index="0" speed="13.89" length="16.34" shape="-19.93,52.94 -36.27,52.59"/>
    </edge>
    <edge id=":gneJ0_5" function="internal">
        <lane id=":gneJ0_5_0" index="0" speed="3.28" length="3.32" shape="-19.93,52.94 -19.89,49.63"/>
    </edge>
    <edge id=":gneJ0_6" function="internal">
        <lane id=":gneJ0_6_0" index="0" speed="5.55" length="9.59" shape="-19.93,52.83 -22.90,53.15 -24.35,54.21 -24.28,56.02 -22.71,58.57"/>
    </edge>
    <edge id=":gneJ0_7" function="internal">
        <lane id=":gneJ0_7_0" index="0" speed="13.89" length="16.34" shape="-19.93,52.83 -36.27,52.59"/>
    </edge>
    <edge id=":gneJ0_8" function="internal">
        <lane id=":gneJ0_8_0" index="0" speed="3.21" length="3.08" shape="-19.93,52.83 -19.89,49.74"/>
    </edge>
    <edge id=":gneJ0_9" function="internal">
        <lane id=":gneJ0_9_0" index="0" speed="13.89" length="16.33" shape="-36.22,49.39 -19.89,49.63"/>
    </edge>
    <edge id=":gneJ0_10" function="internal">
        <lane id=":gneJ0_10_0" index="0" speed="13.89" length="16.33" shape="-36.22,49.39 -19.89,49.74"/>
    </edge>
    <edge id=":gneJ0_11" function="internal">
        <lane id=":gneJ0_11_0" index="0" speed="12.40" length="5.54" shape="-36.22,49.39 -33.02,50.00 -30.99,51.07"/>
    </edge>
    <edge id=":gneJ0_12" function="internal">
        <lane id=":gneJ0_12_0" index="0" speed="12.40" length="11.26" shape="-30.99,51.07 -29.71,51.74 -26.27,54.59 -22.71,58.57"/>
    </edge>
    <edge id=":gneJ1_0" function="internal">
        <lane id=":gneJ1_0_0" index="0" speed="13.89" length="0.22" shape="17.60,53.34 17.38,53.33"/>
    </edge>
    <edge id=":gneJ1_1" function="internal">
        <lane id=":gneJ1_1_0" index="0" speed="13.89" length="0.31" shape="17.42,50.13 17.73,50.14"/>
    </edge>
    <edge id=":gneJ5_0" function="internal">
        <lane id=":gneJ5_0_0" index="0" speed="13.89" length="18.85" shape="54.43,54.98 50.24,55.59 45.56,57.47 41.01,59.89 37.19,62.12"/>
    </edge>
    <edge id=":gneJ5_1" function="internal">
        <lane id=":gneJ5_1_0" index="0" speed="13.89" length="20.18" shape="54.43,54.98 34.26,54.26"/>
    </edge>
    <edge id=":gneJ5_2" function="internal">
        <lane id=":gneJ5_2_0" index="0" speed="13.89" length="20.18" shape="54.43,54.98 34.27,54.01"/>
    </edge>
    <edge id=":gneJ5_3" function="internal">
        <lane id=":gneJ5_3_0" index="0" speed="13.89" length="20.33" shape="34.35,50.81 54.66,51.79"/>
    </edge>
    <edge id=":gneJ5_4" function="internal">
        <lane id=":gneJ5_4_0" index="0" speed="6.48" length="4.66" shape="34.35,50.81 38.31,52.23 38.56,52.62"/>
    </edge>
    <edge id=":gneJ5_5" function="internal">
        <lane id=":gneJ5_5_0" index="0" speed="3.32" length="3.45" shape="34.35,50.81 34.26,54.26"/>
    </edge>
    <edge id=":gneJ5_12" function="internal">
        <lane id=":gneJ5_12_0" index="0" speed="6.48" length="11.11" shape="38.56,52.62 40.29,55.34 40.02,59.01 37.19,62.12"/>
    </edge>
    <edge id=":gneJ5_6" function="internal">
        <lane id=":gneJ5_6_0" index="0" speed="13.89" length="20.33" shape="34.34,51.06 54.66,51.79"/>
    </edge>
    <edge id=":gneJ5_7" function="internal">
        <lane id=":gneJ5_7_0" index="0" speed="6.40" length="15.48" shape="34.34,51.06 38.23,52.40 40.20,55.45 39.95,59.06 37.19,62.12"/>
    </edge>
    <edge id=":gneJ5_8" function="internal">
        <lane id=":gneJ5_8_0" index="0" speed="3.17" length="2.95" shape="34.34,51.06 34.27,54.01"/>
    </edge>
    <edge id=":gneJ5_9" function="internal">
        <lane id=":gneJ5_9_0" index="0" speed="5.50" length="10.94" shape="35.58,59.36 38.61,57.21 39.41,55.65 37.96,54.67 34.26,54.26"/>
    </edge>
    <edge id=":gneJ5_10" function="internal">
        <lane id=":gneJ5_10_0" index="0" speed="5.57" length="11.18" shape="35.58,59.36 38.67,57.17 39.48,55.55 38.02,54.49 34.27,54.01"/>
    </edge>
    <edge id=":gneJ5_11" function="internal">
        <lane id=":gneJ5_11_0" index="0" speed="13.89" length="20.70" shape="35.58,59.36 39.68,57.06 44.87,54.49 50.18,52.47 54.66,51.79"/>
    </edge>
    <edge id=":gneJ7_0" function="internal">
        <lane id=":gneJ7_0_0" index="0" speed="6.10" length="6.95" shape="-0.92,84.40 -2.65,85.11 -4.25,85.16 -5.73,84.54 -7.09,83.25"/>
    </edge>
    <edge id=":gneJ7_1" function="internal">
        <lane id=":gneJ7_1_0" index="0" speed="3.92" length="2.32" shape="-4.59,81.26 -4.14,81.68 -3.64,81.89 -3.11,81.88 -2.53,81.64"/>
    </edge>

    <edge id="-gneE0" from="gneJ1" to="gneJ0" priority="-1">
        <lane id="-gneE0_0" index="0" speed="13.89" length="37.31" shape="17.38,53.33 -19.93,52.83"/>
    </edge>
    <edge id="-gneE10" from="gneJ7" to="gneJ0" priority="-1">
        <lane id="-gneE10_0" index="0" speed="13.89" length="29.03" shape="-7.09,83.25 -25.21,60.57"/>
    </edge>
    <edge id="-gneE11" from="gneJ5" to="gneJ7" priority="-1">
        <lane id="-gneE11_0" index="0" speed="13.89" length="44.14" shape="37.19,62.12 -0.92,84.40"/>
    </edge>
    <edge id="-gneE13" from="gneJ9" to="gneJ5" priority="-1">
        <lane id="-gneE13_0" index="0" speed="13.89" length="28.64" shape="83.00,57.01 54.43,54.98"/>
    </edge>
    <edge id="-gneE14" from="gneJ0" to="gneJ10" priority="-1">
        <lane id="-gneE14_0" index="0" speed="13.89" length="34.11" shape="-36.27,52.59 -70.37,52.03"/>
    </edge>
    <edge id="-gneE6" from="gneJ5" to="gneJ1" priority="-1">
        <lane id="-gneE6_0" index="0" speed="13.89" length="16.68" shape="34.27,54.01 17.60,53.34"/>
    </edge>
    <edge id="-gneE7" from="gneJ0" to="gneJ5" priority="-1">
        <lane id="-gneE7_0" index="0" speed="13.89" length="54.25" shape="-19.89,49.74 34.34,51.06"/>
    </edge>
    <edge id="gneE0" from="gneJ0" to="gneJ1" priority="-1">
        <lane id="gneE0_0" index="0" speed="13.89" length="37.31" shape="-19.89,49.63 17.42,50.13"/>
    </edge>
    <edge id="gneE10" from="gneJ0" to="gneJ7" priority="-1">
        <lane id="gneE10_0" index="0" speed="13.89" length="29.03" shape="-22.71,58.57 -4.59,81.26"/>
    </edge>
    <edge id="gneE11" from="gneJ7" to="gneJ5" priority="-1">
        <lane id="gneE11_0" index="0" speed="13.89" length="44.14" shape="-2.53,81.64 35.58,59.36"/>
    </edge>
    <edge id="gneE13" from="gneJ5" to="gneJ9" priority="-1">
        <lane id="gneE13_0" index="0" speed="13.89" length="28.64" shape="54.66,51.79 83.23,53.82"/>
    </edge>
    <edge id="gneE14" from="gneJ10" to="gneJ0" priority="-1">
        <lane id="gneE14_0" index="0" speed="13.89" length="34.11" shape="-70.32,48.83 -36.22,49.39"/>
    </edge>
    <edge id="gneE6" from="gneJ1" to="gneJ5" priority="-1">
        <lane id="gneE6_0" index="0" speed="13.89" length="16.63" shape="17.73,50.14 34.35,50.81"/>
    </edge>
    <edge id="gneE7" from="gneJ5" to="gneJ0" priority="-1">
        <lane id="gneE7_0" index="0" speed="13.89" length="54.21" shape="34.26,54.26 -19.93,52.94"/>
    </edge>

    <junction id="gneJ0" type="priority" x="-30.74" y="51.08" incLanes="-gneE10_0 gneE7_0 -gneE0_0 gneE14_0" intLanes=":gneJ0_0_0 :gneJ0_1_0 :gneJ0_2_0 :gneJ0_3_0 :gneJ0_4_0 :gneJ0_5_0 :gneJ0_6_0 :gneJ0_7_0 :gneJ0_8_0 :gneJ0_9_0 :gneJ0_10_0 :gneJ0_12_0" shape="-26.46,61.57 -21.46,57.57 -22.40,55.85 -22.33,55.25 -21.90,54.84 -21.11,54.60 -19.95,54.54 -19.87,48.03 -36.19,47.79 -36.30,54.19 -33.42,55.04 -31.84,56.07 -30.14,57.50 -28.35,59.33">
        <request index="0"  response="000010010000" foes="000010010000" cont="0"/>
        <request index="1"  response="111010010000" foes="111010110000" cont="0"/>
        <request index="2"  response="110101010000" foes="110101110000" cont="0"/>
        <request index="3"  response="100001000000" foes="100001000000" cont="0"/>
        <request index="4"  response="100011000000" foes="100011000111" cont="0"/>
        <request index="5"  response="011011000110" foes="011011000110" cont="0"/>
        <request index="6"  response="010000000000" foes="110000111100" cont="0"/>
        <request index="7"  response="000000000000" foes="110000110011" cont="0"/>
        <request index="8"  response="010000000000" foes="010000000100" cont="0"/>
        <request index="9"  response="000000000000" foes="000000100010" cont="0"/>
        <request index="10" response="000010000000" foes="000111100110" cont="0"/>
        <request index="11" response="000011000000" foes="000011011110" cont="1"/>
    </junction>
    <junction id="gneJ1" type="priority" x="17.53" y="51.73" incLanes="-gneE6_0 gneE0_0" intLanes=":gneJ1_0_0 :gneJ1_1_0" shape="17.53,54.93 17.79,48.54 17.44,48.53 17.36,54.93">
        <request index="0" response="00" foes="00" cont="0"/>
        <request index="1" response="00" foes="00" cont="0"/>
    </junction>
    <junction id="gneJ10" type="dead_end" x="-70.35" y="50.43" incLanes="-gneE14_0" intLanes="" shape="-70.35,50.43 -70.40,53.63 -70.35,50.43"/>
    <junction id="gneJ5" type="priority" x="49.57" y="53.03" incLanes="-gneE13_0 gneE6_0 -gneE7_0 gneE11_0" intLanes=":gneJ5_0_0 :gneJ5_1_0 :gneJ5_2_0 :gneJ5_3_0 :gneJ5_12_0 :gneJ5_5_0 :gneJ5_6_0 :gneJ5_7_0 :gneJ5_8_0 :gneJ5_9_0 :gneJ5_10_0 :gneJ5_11_0" shape="54.32,56.58 54.77,50.19 34.39,49.21 34.22,55.86 34.77,57.97 38.00,63.50 41.25,61.39 43.67,59.58 45.71,58.12 47.86,57.10 50.57,56.56">
        <request index="0"  response="000000000000" foes="000010010000" cont="0"/>
        <request index="1"  response="000000000000" foes="111010110000" cont="0"/>
        <request index="2"  response="000000000000" foes="110101110000" cont="0"/>
        <request index="3"  response="000000000000" foes="100001000000" cont="0"/>
        <request index="4"  response="000000000111" foes="100011000111" cont="1"/>
        <request index="5"  response="000000000110" foes="011011000110" cont="0"/>
        <request index="6"  response="000000111100" foes="110000111100" cont="0"/>
        <request index="7"  response="100000110011" foes="110000110011" cont="0"/>
        <request index="8"  response="000000000100" foes="010000000100" cont="0"/>
        <request index="9"  response="000000100010" foes="000000100010" cont="0"/>
        <request index="10" response="000111100110" foes="000111100110" cont="0"/>
        <request index="11" response="000001011110" foes="000011011110" cont="0"/>
    </junction>
    <junction id="gneJ7" type="priority" x="-4.11" y="84.42" incLanes="-gneE11_0 gneE10_0" intLanes=":gneJ7_0_0 :gneJ7_1_0" shape="-0.11,85.78 -3.34,80.26 -8.34,84.25 -5.89,86.34 -4.56,86.80 -3.15,86.85 -1.66,86.51">
        <request index="0" response="00" foes="00" cont="0"/>
        <request index="1" response="00" foes="00" cont="0"/>
    </junction>
    <junction id="gneJ9" type="dead_end" x="83.12" y="55.41" incLanes="gneE13_0" intLanes="" shape="83.12,55.41 83.34,52.22 83.12,55.41"/>

    <junction id=":gneJ0_12_0" type="internal" x="-30.99" y="51.07" incLanes=":gneJ0_11_0 -gneE0_0" intLanes=":gneJ0_1_0 :gneJ0_2_0 :gneJ0_3_0 :gneJ0_4_0 :gneJ0_6_0 :gneJ0_7_0"/>
    <junction id=":gneJ5_12_0" type="internal" x="38.56" y="52.62" incLanes=":gneJ5_4_0 -gneE13_0" intLanes=":gneJ5_0_0 :gneJ5_1_0 :gneJ5_2_0 :gneJ5_6_0 :gneJ5_7_0 :gneJ5_11_0"/>

    <connection from="-gneE0" to="gneE10" fromLane="0" toLane="0" via=":gneJ0_6_0" dir="r" state="m"/>
    <connection from="-gneE0" to="-gneE14" fromLane="0" toLane="0" via=":gneJ0_7_0" dir="s" state="M"/>
    <connection from="-gneE0" to="-gneE7" fromLane="0" toLane="0" via=":gneJ0_8_0" dir="r" state="m"/>
    <connection from="-gneE10" to="-gneE14" fromLane="0" toLane="0" via=":gneJ0_0_0" dir="r" state="m"/>
    <connection from="-gneE10" to="gneE0" fromLane="0" toLane="0" via=":gneJ0_1_0" dir="l" state="m"/>
    <connection from="-gneE10" to="-gneE7" fromLane="0" toLane="0" via=":gneJ0_2_0" dir="l" state="m"/>
    <connection from="-gneE11" to="-gneE10" fromLane="0" toLane="0" via=":gneJ7_0_0" dir="l" state="M"/>
    <connection from="-gneE13" to="-gneE11" fromLane="0" toLane="0" via=":gneJ5_0_0" dir="R" state="M"/>
    <connection from="-gneE13" to="gneE7" fromLane="0" toLane="0" via=":gneJ5_1_0" dir="s" state="M"/>
    <connection from="-gneE13" to="-gneE6" fromLane="0" toLane="0" via=":gneJ5_2_0" dir="s" state="M"/>
    <connection from="-gneE6" to="-gneE0" fromLane="0" toLane="0" via=":gneJ1_0_0" dir="s" state="M"/>
    <connection from="-gneE7" to="gneE13" fromLane="0" toLane="0" via=":gneJ5_6_0" dir="s" state="m"/>
    <connection from="-gneE7" to="-gneE11" fromLane="0" toLane="0" via=":gneJ5_7_0" dir="l" state="m"/>
    <connection from="-gneE7" to="-gneE6" fromLane="0" toLane="0" via=":gneJ5_8_0" dir="r" state="m"/>
    <connection from="gneE0" to="gneE6" fromLane="0" toLane="0" via=":gneJ1_1_0" dir="s" state="M"/>
    <connection from="gneE10" to="gneE11" fromLane="0" toLane="0" via=":gneJ7_1_0" dir="r" state="M"/>
    <connection from="gneE11" to="gneE7" fromLane="0" toLane="0" via=":gneJ5_9_0" dir="r" state="m"/>
    <connection from="gneE11" to="-gneE6" fromLane="0" toLane="0" via=":gneJ5_10_0" dir="r" state="m"/>
    <connection from="gneE11" to="gneE13" fromLane="0" toLane="0" via=":gneJ5_11_0" dir="s" state="m"/>
    <connection from="gneE14" to="gneE0" fromLane="0" toLane="0" via=":gneJ0_9_0" dir="s" state="M"/>
    <connection from="gneE14" to="-gneE7" fromLane="0" toLane="0" via=":gneJ0_10_0" dir="s" state="m"/>
    <connection from="gneE14" to="gneE10" fromLane="0" toLane="0" via=":gneJ0_11_0" dir="l" state="m"/>
    <connection from="gneE6" to="gneE13" fromLane="0" toLane="0" via=":gneJ5_3_0" dir="s" state="M"/>
    <connection from="gneE6" to="-gneE11" fromLane="0" toLane="0" via=":gneJ5_4_0" dir="l" state="m"/>
    <connection from="gneE6" to="gneE7" fromLane="0" toLane="0" via=":gneJ5_5_0" dir="l" state="m"/>
    <connection from="gneE7" to="gneE10" fromLane="0" toLane="0" via=":gneJ0_3_0" dir="r" state="m"/>
    <connection from="gneE7" to="-gneE14" fromLane="0" toLane="0" via=":gneJ0_4_0" dir="s" state="m"/>
    <connection from="gneE7" to="gneE0" fromLane="0" toLane="0" via=":gneJ0_5_0" dir="l" state="m"/>

    <connection from=":gneJ0_0" to="-gneE14" fromLane="0" toLane="0" dir="r" state="M"/>
    <connection from=":gneJ0_1" to="gneE0" fromLane="0" toLane="0" dir="l" state="M"/>
    <connection from=":gneJ0_2" to="-gneE7" fromLane="0" toLane="0" dir="l" state="M"/>
    <connection from=":gneJ0_3" to="gneE10" fromLane="0" toLane="0" dir="r" state="M"/>
    <connection from=":gneJ0_4" to="-gneE14" fromLane="0" toLane="0" dir="s" state="M"/>
    <connection from=":gneJ0_5" to="gneE0" fromLane="0" toLane="0" dir="l" state="M"/>
    <connection from=":gneJ0_6" to="gneE10" fromLane="0" toLane="0" dir="r" state="M"/>
    <connection from=":gneJ0_7" to="-gneE14" fromLane="0" toLane="0" dir="s" state="M"/>
    <connection from=":gneJ0_8" to="-gneE7" fromLane="0" toLane="0" dir="r" state="M"/>
    <connection from=":gneJ0_9" to="gneE0" fromLane="0" toLane="0" dir="s" state="M"/>
    <connection from=":gneJ0_10" to="-gneE7" fromLane="0" toLane="0" dir="s" state="M"/>
    <connection from=":gneJ0_11" to="gneE10" fromLane="0" toLane="0" via=":gneJ0_12_0" dir="l" state="m"/>
    <connection from=":gneJ0_12" to="gneE10" fromLane="0" toLane="0" dir="l" state="M"/>
    <connection from=":gneJ1_0" to="-gneE0" fromLane="0" toLane="0" dir="s" state="M"/>
    <connection from=":gneJ1_1" to="gneE6" fromLane="0" toLane="0" dir="s" state="M"/>
    <connection from=":gneJ5_0" to="-gneE11" fromLane="0" toLane="0" dir="R" state="M"/>
    <connection from=":gneJ5_1" to="gneE7" fromLane="0" toLane="0" dir="s" state="M"/>
    <connection from=":gneJ5_2" to="-gneE6" fromLane="0" toLane="0" dir="s" state="M"/>
    <connection from=":gneJ5_3" to="gneE13" fromLane="0" toLane="0" dir="s" state="M"/>
    <connection from=":gneJ5_4" to="-gneE11" fromLane="0" toLane="0" via=":gneJ5_12_0" dir="l" state="m"/>
    <connection from=":gneJ5_12" to="-gneE11" fromLane="0" toLane="0" dir="l" state="M"/>
    <connection from=":gneJ5_5" to="gneE7" fromLane="0" toLane="0" dir="l" state="M"/>
    <connection from=":gneJ5_6" to="gneE13" fromLane="0" toLane="0" dir="s" state="M"/>
    <connection from=":gneJ5_7" to="-gneE11" fromLane="0" toLane="0" dir="l" state="M"/>
    <connection from=":gneJ5_8" to="-gneE6" fromLane="0" toLane="0" dir="r" state="M"/>
    <connection from=":gneJ5_9" to="gneE7" fromLane="0" toLane="0" dir="r" state="M"/>
    <connection from=":gneJ5_10" to="-gneE6" fromLane="0" toLane="0" dir="r" state="M"/>
    <connection from=":gneJ5_11" to="gneE13" fromLane="0" toLane="0" dir="s" state="M"/>
    <connection from=":gneJ7_0" to="-gneE10" fromLane="0" toLane="0" dir="l" state="M"/>
    <connection from=":gneJ7_1" to="gneE11" fromLane="0" toLane="0" dir="r" state="M"/>

</net>
