<configuration>
<input>
<net-file value="circle.net.xml"/>
<route-files value="circle1.rou.xml"/>
</input>
<time>
<begin value="0"/>
<end value="2000"/>
</time>
</configuration>