<routes>
<route id="route0" edges="1-2 2-3"/>
<vehicle depart="10" id="veh0" route="route0"/>
<route id="route1" edges="2-3 3-4"/>
<vehicle depart="10" id="veh1" route="route1"/>
<route id="route2" edges="3-4 4-5"/>
<vehicle depart="30" id="veh2" route="route2"/>
</routes>