<routes>
    <trip id="1" depart="18.39" from="1-2" to="2-3"/>
	<trip id="2" depart="10.39" from="1-2" to="3-4"/>
	<trip id="3" depart="13.39" from="1-2" to="6-7"/>
	<trip id="4" depart="28.39" from="1-2" to="7-8"/>
</routes>