<configuration>
    <input>
        <net-file value="network.net.xml"/>
        <additional-files value="trips.odtrips.xml"/>
        
    </input>
</configuration>