<additional>
<tazs>
<taz id="1" edges="gneE0">
</taz>
<taz id="2" edges="gneE3">
</taz>
<taz id="3" edges="-gneE3">
</taz>
<taz id="4" edges="-gneE0">
</taz>
</tazs>
</additional>