<?xml version="1.0" encoding="UTF-8"?>

<!-- generated on 06/13/20 17:46:24 by Eclipse SUMO duarouter Version 1.6.0
<configuration xmlns:xsi="http://www.w3.org/2001/XMLSchema-instance" xsi:noNamespaceSchemaLocation="http://sumo.dlr.de/xsd/duarouterConfiguration.xsd">

    <input>
        <net-file value="map.net.xml"/>
        <route-files value="trips.trips.xml"/>
    </input>

    <output>
        <output-file value="map.rou.xml"/>
        <alternatives-output value="map.rou.alt.xml"/>
    </output>

    <time>
        <begin value="0"/>
        <end value="500.0"/>
    </time>

    <report>
        <no-warnings value="true"/>
        <ignore-errors value="true"/>
        <no-step-log value="true"/>
    </report>

</configuration>
-->

<routes xmlns:xsi="http://www.w3.org/2001/XMLSchema-instance" xsi:noNamespaceSchemaLocation="http://sumo.dlr.de/xsd/routes_file.xsd">
    <vehicle id="0" depart="0.00">
        <route edges="296429762#1 296429762#2 296429762#3 296429762#4 296429762#5 296429762#6 296429762#7 264432818#0 264432818#1 11851716#2 11851716#3 11851716#4 11851716#5 11851716#6 11851716#7 11851716#8 11851716#9 11851716#10 11851716#11 11851716#12 11851716#13 335532205#0 335532205#1 318681921#0 318681921#1 318681921#2 318681921#3 -313329257#4 -313329257#3 -313329257#2 -313329257#1 313329257#1"/>
    </vehicle>
    <vehicle id="1" depart="1.00">
        <route edges="11672244#0 11672244#1 11837579#3 11837579#4 11837579#5 11837579#6 11837579#7 11837579#8 11837579#9 11837579#10 335532207#0 335532207#1 335532207#2 335532207#3 335532207#4 335532207#5 11729090#0 11729090#1 11729090#2 11729090#3 -11729090#3"/>
    </vehicle>
    <vehicle id="2" depart="2.00">
        <route edges="11956950#4 11956950#5 11956950#6 -11730622#0 -11955884#3 -11955884#2 -11955884#1 -11955884#0 625361998#0 625361998#1 625361998#2 625361998#3 625361998#4 625361998#5 11837579#0 11837579#1 11837579#2 11837579#3 11837579#4 11837579#5 11837579#6 11837579#7 11837579#8 11837579#9 11837579#10 335532207#0 335532207#1 335532207#2 335532207#3 335532207#4 335532207#5 11729090#0 11729090#1 11729090#2 11729090#3 11729090#4 335532206 54964356#0 54964356#1 54964356#2 318681923 -11851716#13 -11851716#12 -11851716#11 -11851716#10 -11851716#9 -11851716#8 -11851716#7 -11851716#6 -11851716#5 -11851716#4 -11851716#3 -11851716#2 -264432818#1 -264432818#0 -296429762#7 -296429762#6 -296429762#5 -296429762#4 -296429762#3 -296429762#2 -296429762#1"/>
    </vehicle>
    <vehicle id="3" depart="3.00">
        <route edges="11823485#0 -11823485#0 -318681921#1 -318681921#0 -335532205#1 -335532205#0 -11851716#13 -11851716#12 -11851716#11 -11851716#10 -11851716#9 -11851716#8 -11851716#7 -11851716#6 -11851716#5 -11851716#4 -11851716#3 -11851716#2 -264432818#1 -264432818#0 -11698857 -294921196#2 -294921196#1 -294921196#0 11834303#0 11834303#1 11834303#2 11834303#3 11834303#4"/>
    </vehicle>
    <vehicle id="4" depart="4.00">
        <route edges="27630556#0 27630556#1 24931539#0 24931539#1 11838419#0 11838419#1 11838419#2 11838419#3 296429762#0 296429762#1 296429762#2 296429762#3 296429762#4 296429762#5 296429762#6 296429762#7 264432818#0 264432818#1 11851716#2 11851716#3 11851716#4 11851716#5 11851716#6 11851716#7 11851716#8 11851716#9 11851716#10 11851716#11 11851716#12 11851716#13 -318681923 -54964356#2 -54964356#1 -54964356#0 -335532206 -11729090#4 -11729090#3 -11729090#2 -11729090#1 -11729090#0 -335532207#5 -335532207#4 -335532207#3 -335532207#2 -335532207#1 -335532207#0 335532208#0 335532208#1 335532208#2 335532208#3 335532208#4 24864540#0 24864540#1 24864540#2 24864540#3 24864540#4 24864540#5 24864540#6 24864540#7 24864540#8 24864540#9 24864540#10 24864541 320455187#0 320455187#1 320455187#2 320455187#3 -265895120"/>
    </vehicle>
    <vehicle id="5" depart="5.00">
        <route edges="619370082#1 -619370082#1 -619370082#0 -11960711#7 -11960711#6 -11960711#5 -11960711#4 -11960711#3 -11960711#2 -11960711#1 -11960711#0 11826990#0 11826990#1 11826990#2 265895120 -265895120"/>
    </vehicle>
    <vehicle id="6" depart="6.00">
        <route edges="-11730622#0 -11955884#3 -11955884#2 -11955884#1 -11955884#0 625361998#0 625361998#1 625361998#2 625361998#3 625361998#4 625361998#5 11837579#0 11837579#1 11837579#2 11837579#3 11837579#4 11837579#5 11837579#6 11837579#7 11837579#8 11837579#9 11837579#10 335532207#0 335532207#1 335532207#2 335532207#3 335532207#4 335532207#5 11729090#0 11729090#1 11729090#2 11729090#3 11729090#4 335532206 54964356#0 54964356#1 54964356#2 318681923 335532205#0 335532205#1 318681921#0 318681921#1 318681921#2 318681921#3 -313329257#4 -313329257#3 -313329257#2 -313329257#1 313329257#1"/>
    </vehicle>
    <vehicle id="7" depart="7.00">
        <route edges="-11730622#5 -11730622#4 11730622#4 11730622#5"/>
    </vehicle>
    <vehicle id="8" depart="8.00">
        <route edges="292851770#6 292851770#7 292851770#8 292851770#9 292851770#10 292851770#11 11687001#0 -267173080#2 -267173080#1 -267173080#0 -11833234 11944354#0 11944354#1 267171461"/>
    </vehicle>
    <vehicle id="9" depart="9.00">
        <route edges="-11742581 -11756576#2 -11756576#1"/>
    </vehicle>
    <vehicle id="10" depart="10.00">
        <route edges="-317470798#8 317470798#8 292851770#0 292851770#1 292851770#2 292851770#3 292851770#4 292851770#5 -11690551#4 -11690551#3 -11690551#2 -11690551#1 11690551#1"/>
    </vehicle>
    <vehicle id="11" depart="11.00">
        <route edges="294921138#0 294921138#1 294921138#2 11826990#1 11826990#2 265895121#0 265895121#1 265895121#2 265895121#3 392332379#0 392332379#1 11755338#0 11755338#1 315436625#0 315436625#1 315436625#2 315436625#3 315436625#4 292851769"/>
    </vehicle>
    <vehicle id="12" depart="12.00">
        <route edges="11672244#1 -11837579#2 -11837579#1 -11837579#0 292851770#0 292851770#1 292851770#2 292851770#3 292851770#4 292851770#5 292851770#6 292851770#7 292851770#8 292851770#9 292851770#10 292851770#11 11687001#0 11687001#1 11687001#2"/>
    </vehicle>
    <vehicle id="13" depart="13.00">
        <route edges="11853299#0 -11730622#1 -11730622#0 -11955884#3 -11955884#2 -11955884#1 -11955884#0 -625851681#1 -625851681#0 11826990#0 294921134#0 294921134#1 294921134#2"/>
    </vehicle>
    <vehicle id="14" depart="14.00">
        <route edges="292851770#6 -292851770#6 -292851770#5 -292851770#4 -292851770#3 -292851770#2 -292851770#1 -292851770#0 11837579#0 11837579#1 11837579#2 11837579#3 11837579#4 11837579#5 11837579#6 11837579#7 11837579#8 11837579#9 11837579#10 335532207#0 335532207#1 335532207#2 335532207#3 335532207#4 335532207#5 11729090#0 11729090#1 11729090#2 11729090#3 11729090#4 335532206 54964356#0 54964356#1 54964356#2 318681923 -11851716#13 -11851716#12 -11851716#11 -11851716#10 -11851716#9 -11851716#8 11851716#8"/>
    </vehicle>
    <vehicle id="15" depart="15.00">
        <route edges="-11699690#2 -11699690#1 -11699690#0 11742522 -11823485#0 318681921#2 318681921#3 -313329257#4 -313329257#3 -313329257#2 -366700511#2 -27643478 366700511#0 366700511#1"/>
    </vehicle>
    <vehicle id="16" depart="16.00">
        <route edges="-296429762#1 296429762#1 296429762#2 296429762#3 296429762#4 296429762#5 296429762#6 296429762#7 264432818#0 264432818#1 11851716#2 11851716#3 11851716#4 11851716#5 11851716#6 11851716#7 11851716#8 11851716#9 11851716#10 11851716#11 11851716#12 11851716#13 335532205#0 335532205#1 318681921#0 318681921#1 318681921#2 318681921#3 -313329257#4 -313329257#3 -313329257#2 -366700511#2 366700511#2"/>
    </vehicle>
    <vehicle id="17" depart="17.00">
        <route edges="-11944354#0 11944354#0 11944354#1 267171461 11729090#3 11729090#4 335532206 54964356#0 54964356#1 54964356#2 318681923 -11851716#13 -11851716#12 -11851716#11 -11851716#10 -11851716#9 -11851716#8 -11851716#7 -11851716#6 -11851716#5 -11851716#4 -11851716#3 -11851716#2 -264432818#1 -264432818#0 -296429762#7 -296429762#6 -296429762#5 -296429762#4 -296429762#3 -296429762#2 -296429762#1 -296429762#0 -11838419#3 -11838419#2 -11838419#1 -11838419#0 27630556#0"/>
    </vehicle>
    <vehicle id="18" depart="18.00">
        <route edges="-11690395#4 -11690395#3 -11690395#2 -11690395#1 -11690395#0 54964356#0 54964356#1 54964356#2 318681923 335532205#0 335532205#1 318681921#0 318681921#1 11823485#0 -11823485#0"/>
    </vehicle>
    <vehicle id="19" depart="19.00">
        <route edges="-313329257#4 313329257#4 -318681921#3 -318681921#2 -318681921#1 -318681921#0 -335532205#1 -335532205#0 -318681923 -54964356#2 -54964356#1 -54964356#0 -335532206 -11729090#4 -11729090#3 -11729090#2 -11729090#1 -11729090#0 -335532207#5 -335532207#4 -335532207#3 -335532207#2 -335532207#1 -335532207#0 -11837579#10 -11837579#9 -11837579#8 -11837579#7 -11837579#6 -11837579#5 -11837579#4 -11837579#3 -11837579#2 -11837579#1 -11837579#0 292851770#0 292851770#1 292851770#2 292851770#3 292851770#4 292851770#5 -11690551#4 -11690551#3 -11690551#2 11690551#2"/>
    </vehicle>
    <vehicle id="20" depart="20.00">
        <route edges="-11730622#4 -11730622#3 317470798#2 317470798#3 317470798#4 317470798#5 317470798#6 317470798#7 317470798#8 11837579#0 11837579#1 11837579#2 11837579#3 11837579#4 11837579#5 11837579#6 11837579#7 11837579#8 11837579#9 11837579#10 335532207#0 335532207#1 335532207#2 335532207#3 335532207#4 335532207#5 11729090#0 11729090#1 11729090#2 11729090#3 11729090#4 335532206 54964356#0 54964356#1 54964356#2 318681923 -11851716#13 -11851716#12 -11851716#11 -11851716#10 -11851716#9 -11851716#8 -11851716#7 -11851716#6 -11851716#5 -11851716#4 -11851716#3 -11851716#2 -264432818#1 -264432818#0 -11698857 -294921196#2 -294921196#1 -294921196#0 714792792#0 714792792#1"/>
    </vehicle>
    <vehicle id="21" depart="21.00">
        <route edges="-11955884#2 -11955884#1 -11955884#0 625361998#0 625361998#1 625361998#2 625361998#3 625361998#4 625361998#5 292851770#0 292851770#1 292851770#2 292851770#3 292851770#4 292851770#5 -11690551#4 -11690551#3 -11690551#2 -11690551#1 11949370"/>
    </vehicle>
    <vehicle id="22" depart="22.00">
        <route edges="-292851770#11 -292851770#10 -292851770#9 -292851770#8 -292851770#7 -292851770#6 -292851770#5 -292851770#4 -292851770#3 -292851770#2 -292851770#1 -292851770#0 11837579#0 11837579#1 11837579#2 11837579#3 11837579#4 11837579#5 11837579#6 11837579#7 11837579#8 11837579#9 11837579#10 335532207#0 335532207#1 335532207#2 335532207#3 335532207#4 335532207#5 11729090#0 11729090#1 11729090#2 11729090#3 11729090#4 335532206 54964356#0 54964356#1 54964356#2 318681923 -11851716#13 -11851716#12 -11851716#11 -11851716#10 -11851716#9 -11851716#8 -11851716#7 -11851716#6 -11851716#5 -11851716#4 -11851716#3 -11851716#2 -264432818#1 -264432818#0 -296429762#7 -296429762#6 -296429762#5 -296429762#4 -296429762#3 296429762#3"/>
    </vehicle>
    <vehicle id="23" depart="23.00">
        <route edges="-318681923 -54964356#2 -54964356#1 -54964356#0 -335532206 -11729090#4 -11729090#3 -11729090#2 -11729090#1 -11729090#0 -335532207#5 -335532207#4 -335532207#3 -335532207#2 -335532207#1 -335532207#0 335532208#0 335532208#1 335532208#2 335532208#3 335532208#4 24864540#0 24864540#1 24864540#2 24864540#3 24864540#4 24864540#5 24864540#6 24864540#7 24864540#8 24864540#9 24864540#10 24864541 320455187#0 320455187#1 320455187#2 320455187#3 -265895120 -11826990#2 -11826990#1 11826990#1"/>
    </vehicle>
    <vehicle id="24" depart="24.00">
        <route edges="292851770#2 -292851770#2 -292851770#1 -292851770#0 -625361998#5 625361998#5"/>
    </vehicle>
    <vehicle id="25" depart="25.00">
        <route edges="619370082#3 619370082#4 -619370082#4 -619370082#3 -619370082#2 -619370082#1 -619370082#0 -11960711#7 -11960711#6 -11960711#5 -11960711#4 -11960711#3 -11960711#2 -11960711#1 -11960711#0 625851681#0 625851681#1 625361998#0 625361998#1 625361998#2 625361998#3 625361998#4 625361998#5 292851770#0 292851770#1 292851770#2 292851770#3 292851770#4 292851770#5 292851770#6 292851770#7 292851770#8 292851770#9 292851770#10 292851770#11 11687001#0 -267173080#2 11756576#0"/>
    </vehicle>
    <vehicle id="26" depart="26.00">
        <route edges="-11730622#5 -11730622#4 11730622#4 11730622#5"/>
    </vehicle>
    <vehicle id="27" depart="27.00">
        <route edges="-11851716#11 11851716#11 11851716#12 11851716#13 -318681923 -54964356#2 -54964356#1 -54964356#0 -335532206 -11729090#4 -11729090#3 -11729090#2 -11729090#1 -11729090#0 -335532207#5 -335532207#4 -335532207#3 -335532207#2 -335532207#1 -335532207#0 -11837579#10 -11837579#9 -11837579#8 -11837579#7 -11837579#6 -11837579#5 -11837579#4 -11837579#3 -11837579#2 -11837579#1 -11837579#0 -317470798#8 -317470798#7 -317470798#6 -317470798#5 -317470798#4 -317470798#3 -317470798#2 -11730622#2 -11730622#1"/>
    </vehicle>
    <vehicle id="29" depart="29.00">
        <route edges="-625361998#0 625361998#0 625361998#1 625361998#2 625361998#3 625361998#4 625361998#5 11837579#0 11837579#1 11837579#2 11837579#3 11837579#4 11837579#5 11837579#6 11837579#7 11837579#8 11837579#9 11837579#10 335532207#0 335532207#1 335532207#2 335532207#3 335532207#4 335532207#5 11729090#0 11729090#1 11729090#2 11729090#3 11729090#4 335532206 54964356#0 54964356#1 54964356#2 318681923 335532205#0 335532205#1 11810524"/>
    </vehicle>
    <vehicle id="30" depart="30.00">
        <route edges="-11730622#3 317470798#2 317470798#3 317470798#4 317470798#5 317470798#6 317470798#7 317470798#8 11837579#0 11837579#1 11837579#2 11837579#3 11837579#4 11837579#5 11837579#6 11837579#7 11837579#8 11837579#9 11837579#10 335532207#0 335532207#1 335532207#2 335532207#3 335532207#4 335532207#5 11729090#0 11729090#1 11729090#2 11729090#3 11729090#4 335532206 54964356#0 54964356#1 54964356#2 318681923 335532205#0 335532205#1 318681921#0 318681921#1 11823485#0 -11742522 11699690#0 11699690#1 11699690#2"/>
    </vehicle>
    <vehicle id="31" depart="31.00">
        <route edges="-625851681#1 -625851681#0 11826990#0 11826990#1 11826990#2 265895120 -320455187#3 -320455187#2 -320455187#1 -320455187#0 -24864541 -24864540#10 -24864540#9 -24864540#8 -24864540#7 -24864540#6 -24864540#5 -24864540#4 -24864540#3 -24864540#2 -24864540#1 -24864540#0 -335532208#4 -335532208#3 -335532208#2 -335532208#1 -335532208#0 335532207#0 335532207#1 335532207#2 335532207#3 335532207#4 335532207#5 11729090#0 11729090#1 11729090#2 11729090#3 11729090#4 335532206 54964356#0 54964356#1 11736605"/>
    </vehicle>
    <vehicle id="32" depart="32.00">
        <route edges="11730622#4 11730622#5 -11730622#5 -11730622#4 -11730622#3 317470798#2"/>
    </vehicle>
    <vehicle id="33" depart="33.00">
        <route edges="-11742522 11699690#0 -11699690#0 11742522 -11823485#0 -318681921#1 -318681921#0 -335532205#1 -335532205#0 -11851716#13 -11851716#12 -11851716#11 -11851716#10 -11851716#9 -11851716#8 11851716#8"/>
    </vehicle>
    <vehicle id="34" depart="34.00">
        <route edges="-11699690#2 -11699690#1 -11699690#0 11742522 -11823485#0 -318681921#1 -318681921#0 -335532205#1 -335532205#0 -11851716#13 -11851716#12 -11851716#11 -11851716#10 -11851716#9 -11851716#8 -11851716#7 -11851716#6 -11851716#5 -11851716#4 -11851716#3 -11851716#2 -264432818#1 -264432818#0 264432817#0 -264432817#0"/>
    </vehicle>
    <vehicle id="35" depart="35.00">
        <route edges="-11691398#2 11685963#0 11685963#1 11756576#2 11742581 -11690395#1 -11690395#0 -335532206 -11729090#4 -11729090#3 11729090#3"/>
    </vehicle>
    <vehicle id="36" depart="36.00">
        <route edges="-714792792#1 -714792792#0 294921196#0 294921196#1 294921196#2 11698857 264432818#0 264432818#1 11851716#2 11851716#3 11851716#4 11851716#5 11851716#6 11851716#7 11851716#8 11851716#9 11851716#10 11851716#11 11851716#12 11851716#13 -318681923 -54964356#2 -54964356#1 -54964356#0 -335532206 -11729090#4 -11729090#3 -267171461 -11944354#1 -11944354#0 11833234 267173080#0 267173080#1 267173080#2 11687001#1 -11841038#1 11841038#1"/>
    </vehicle>
    <vehicle id="37" depart="37.00">
        <route edges="-625361998#0 625361998#0 625361998#1 625361998#2 625361998#3 625361998#4 625361998#5 -317470798#8 -317470798#7 -317470798#6 -317470798#5 -317470798#4 -317470798#3 -317470798#2 -317470798#1"/>
    </vehicle>
    <vehicle id="38" depart="38.00">
        <route edges="313329257#4 -318681921#3 -318681921#2 -318681921#1 -318681921#0 -335532205#1 -335532205#0 -318681923 -54964356#2 -54964356#1 -54964356#0 -335532206 -11729090#4 -11729090#3 -11729090#2 -11729090#1 -11729090#0 -335532207#5 -335532207#4 -335532207#3 -335532207#2 -335532207#1 -335532207#0 -11837579#10 -11837579#9 -11837579#8 -11837579#7 -11837579#6 -11837579#5 -11837579#4 -11837579#3 -11837579#2 -11837579#1 -11837579#0 -317470798#8 -317470798#7 -317470798#6 -317470798#5 -317470798#4 -317470798#3 -317470798#2"/>
    </vehicle>
    <vehicle id="39" depart="39.00">
        <route edges="11853299#0 11730622#2 317470798#2 317470798#3 317470798#4 317470798#5 317470798#6 317470798#7 317470798#8 11837579#0 11837579#1 11837579#2 11837579#3 11837579#4 11837579#5 11837579#6 11837579#7 11837579#8 11837579#9 11837579#10 335532207#0 335532207#1 335532207#2 335532207#3 335532207#4 335532207#5 11729090#0 11729090#1 11729090#2 11729090#3 11729090#4 335532206 54964356#0 54964356#1 54964356#2 318681923 335532205#0 335532205#1 318681921#0 318681921#1 11823485#0 -11742522 11699690#0 11699690#1 11699690#2"/>
    </vehicle>
    <vehicle id="40" depart="40.00">
        <route edges="11742522 -11823485#0 -318681921#1 -318681921#0 -335532205#1 -335532205#0 -11851716#13 11961801"/>
    </vehicle>
    <vehicle id="41" depart="41.00">
        <route edges="11730622#4 11730622#5"/>
    </vehicle>
    <vehicle id="42" depart="42.00">
        <route edges="11691398#2 -11740080 -11756576#2 -11756576#1 -11756576#0 267173080#2 -11687001#0 -292851770#11 -292851770#10 -292851770#9 -292851770#8 -292851770#7 -292851770#6 -11690551#4 -11690551#3"/>
    </vehicle>
    <vehicle id="43" depart="43.00">
        <route edges="315436625#2 -315436625#2 -315436625#1 -315436625#0 -11755338#1 -11755338#0 -392332379#1 -392332379#0 -11805275#4 -11805275#3 -11805275#2 -11805275#1 -11805275#0 625361998#0 625361998#1 625361998#2 625361998#3 625361998#4 625361998#5 -317470798#8 -317470798#7 -317470798#6 -317470798#5 -317470798#4 -317470798#3 -317470798#2 11730622#3 -11730622#3"/>
    </vehicle>
    <vehicle id="44" depart="44.00">
        <route edges="-320455187#0 -24864541 -24864540#10 24864540#10 24864541 320455187#0 320455187#1 320455187#2 320455187#3 -265895120 265895121#0 265895121#1 265895121#2 265895121#3 392332379#0 392332379#1 11755338#0 11755338#1 315436625#0"/>
    </vehicle>
    <vehicle id="45" depart="45.00">
        <route edges="-11740080 11742581 -11690395#1 -11690395#0 54964356#0 54964356#1 54964356#2 318681923 -11851716#13 -11851716#12 -11851716#11 -11851716#10 -11851716#9 -11851716#8 -11851716#7 -11851716#6 -11851716#5 -11851716#4 -11851716#3 -11851716#2 -264432818#1 -264432818#0 -296429762#7 -296429762#6 -296429762#5 -296429762#4 -296429762#3 -296429762#2 -296429762#1"/>
    </vehicle>
    <vehicle id="46" depart="46.00">
        <route edges="264432817#0 -264432817#0 264432818#0 264432818#1 11851716#2 11851716#3 11851716#4 11851716#5 11851716#6 11851716#7 11851716#8 11851716#9 11851716#10 11851716#11 11851716#12 11851716#13 -318681923 -54964356#2 -54964356#1 -54964356#0 11690395#0 11690395#1 11690395#2 11690395#3 -11690395#3"/>
    </vehicle>
    <vehicle id="47" depart="47.00">
        <route edges="296429762#1 296429762#2 296429762#3 296429762#4 296429762#5 296429762#6 296429762#7 264432818#0 264432818#1 11851716#2 11851716#3 11851716#4 11851716#5 11851716#6 11851716#7 11851716#8 11851716#9 11851716#10 11851716#11 11851716#12 11851716#13 -318681923 -54964356#2 -54964356#1 -54964356#0 -335532206 -11729090#4 -11729090#3 -11729090#2 -11729090#1 -11729090#0 -335532207#5 -335532207#4 -335532207#3 -335532207#2 -335532207#1 -335532207#0 335532208#0 335532208#1 335532208#2 335532208#3 335532208#4 24864540#0 24864540#1 24864540#2 24864540#3 24864540#4 24864540#5 24864540#6 24864540#7 24864540#8 24864540#9 24864540#10 24864541 320455187#0 320455187#1 320455187#2 320455187#3 -265895120 265895121#0 265895121#1 265895121#2 265895121#3 392332379#0 392332379#1"/>
    </vehicle>
    <vehicle id="48" depart="48.00">
        <route edges="11841038#0 11841038#1 11687001#2 -11690395#4 -11690395#3 -11690395#2 -11690395#1 -11690395#0 11690395#0 11690395#1"/>
    </vehicle>
    <vehicle id="49" depart="49.00">
        <route edges="-11730622#3 317470798#2 317470798#3 317470798#4 317470798#5 317470798#6 317470798#7 317470798#8 11837579#0 11837579#1 11837579#2 11837579#3 11837579#4 11837579#5 11837579#6 11837579#7 11837579#8 11837579#9 11837579#10 335532207#0 335532207#1 335532207#2 335532207#3 335532207#4 335532207#5 11729090#0 11729090#1 11729090#2 11729090#3 11729090#4 335532206 54964356#0 54964356#1 54964356#2 318681923 335532205#0 335532205#1 318681921#0 318681921#1 11823485#0 -11742522 11699690#0 -11699690#0 11742522"/>
    </vehicle>
    <vehicle id="50" depart="50.00">
        <route edges="-292851770#0 -317470798#8 -317470798#7 -317470798#6 -317470798#5 -317470798#4 -317470798#3 -317470798#2 11730622#3 11730622#4 11730622#5 -11730622#5 -11730622#4"/>
    </vehicle>
    <vehicle id="51" depart="51.00">
        <route edges="313329257#4 -318681921#3 -318681921#2 11823485#0 -11742522 11699690#0 -11699690#0 11742522"/>
    </vehicle>
    <vehicle id="52" depart="52.00">
        <route edges="11711373#0 11711373#1 -292851769 -315436625#4 -315436625#3 -315436625#2 -315436625#1 -315436625#0 -11755338#1 -11755338#0 -392332379#1 -392332379#0 -11805275#4 -11805275#3 -11805275#2 -11805275#1 -11805275#0 625361998#0 625361998#1 625361998#2 625361998#3 625361998#4 625361998#5 292851770#0 292851770#1 292851770#2 292851770#3 292851770#4 292851770#5 -11690551#4 -11690551#3 -11690551#2 -11690551#1 -11690551#0"/>
    </vehicle>
    <vehicle id="53" depart="53.00">
        <route edges="-11955884#2 11955884#2 11955884#3 11730622#0 11730622#1 11730622#2"/>
    </vehicle>
    <vehicle id="54" depart="54.00">
        <route edges="294921122#1 294921122#2 294921122#3 265895120 -320455187#3 -320455187#2 -320455187#1 -320455187#0 -24864541 -24864540#10 -24864540#9 -24864540#8 -24864540#7 -24864540#6 -24864540#5 -24864540#4 -24864540#3 -24864540#2 -24864540#1 -24864540#0 -335532208#4 -335532208#3 -335532208#2 -335532208#1 -335532208#0 335532207#0 335532207#1 335532207#2 335532207#3 335532207#4 335532207#5 11729090#0 11729090#1 11729090#2 11729090#3 11729090#4 335532206 54964356#0 54964356#1 54964356#2 318681923 -11851716#13 -11851716#12 -11851716#11 -11851716#10 -11851716#9 -11851716#8 -11851716#7 -11851716#6 -11851716#5 -11851716#4 -11851716#3 -11851716#2 -264432818#1 -264432818#0 -11698857 11734056"/>
    </vehicle>
    <vehicle id="55" depart="55.00">
        <route edges="-11841038#1 11841038#1 -11687001#1 -11687001#0 -292851770#11 -292851770#10 -292851770#9 -292851770#8 -292851770#7 -292851770#6 -11690551#4 -11690551#3 -11690551#2 -11690551#1 -11690551#0 11730622#4 11730622#5 -11730622#5 -11730622#4"/>
    </vehicle>
    <vehicle id="56" depart="56.00">
        <route edges="-11690395#4 -11690395#3 -11690395#2 -11690395#1 -11690395#0 54964356#0 54964356#1 54964356#2 318681923 335532205#0 335532205#1 318681921#0 318681921#1 318681921#2 318681921#3 -313329257#4 -313329257#3 -313329257#2 -366700511#2 -27643478 366700511#0 366700511#1"/>
    </vehicle>
    <vehicle id="57" depart="57.00">
        <route edges="28727096#1 28727096#2 28727096#3 11826990#0 11826990#1 11826990#2 -11826990#2"/>
    </vehicle>
    <vehicle id="58" depart="58.00">
        <route edges="-318681921#0 -335532205#1 -335532205#0 -318681923 -54964356#2 -54964356#1 -54964356#0 -335532206 -11729090#4 -11729090#3 -267171461 -11944354#1 -11944354#0 11833234 267173080#0 267173080#1 267173080#2 11687001#1 11687001#2"/>
    </vehicle>
    <vehicle id="59" depart="59.00">
        <route edges="-625361998#2 625361998#2 625361998#3 625361998#4 625361998#5 11837579#0 11837579#1 11837579#2 11837579#3 11837579#4 11837579#5 11837579#6 11837579#7 11837579#8 11837579#9 11837579#10 335532207#0 335532207#1 335532207#2 335532207#3 335532207#4 335532207#5 11729090#0 11729090#1 11729090#2 11729090#3 11729090#4 335532206 11690395#0 11690395#1 -11742581 11742581"/>
    </vehicle>
    <vehicle id="60" depart="60.00">
        <route edges="293149233 374792903 11838419#0 11838419#1 11838419#2 11838419#3 296429762#0 296429762#1 296429762#2 296429762#3 296429762#4 296429762#5 296429762#6 296429762#7 264432818#0 264432818#1 11851716#2 11851716#3 11851716#4 11851716#5 11851716#6 11851716#7 11851716#8 11851716#9 11851716#10 11851716#11 11851716#12 11851716#13 -318681923 -54964356#2 -54964356#1 -54964356#0 11690395#0 11690395#1 -11742581 -11756576#2 -11756576#1 11756576#1"/>
    </vehicle>
    <vehicle id="61" depart="61.00">
        <route edges="-11823485#1 -11823485#0 -318681921#1 -318681921#0 -335532205#1 -335532205#0 -318681923 -54964356#2 -54964356#1 -54964356#0 -335532206 -11729090#4 -11729090#3 -11729090#2 -11729090#1 -11729090#0 -335532207#5 -335532207#4 -335532207#3 -335532207#2 -335532207#1 -335532207#0 -11837579#10 -11837579#9 -11837579#8 -11837579#7 -11837579#6 -11837579#5 -11837579#4 -11837579#3 -11837579#2 -11837579#1 -11837579#0 -625361998#5 625361998#5"/>
    </vehicle>
    <vehicle id="62" depart="62.00">
        <route edges="11711373#0 11711373#1 -292851769 -315436625#4 -315436625#3 -315436625#2 -315436625#1 -315436625#0 -11755338#1 -11755338#0 -392332379#1 -392332379#0 -265895121#3 -265895121#2 -265895121#1 -265895121#0 265895120 -320455187#3 -320455187#2 -320455187#1 -320455187#0 -24864541 -24864540#10 -24864540#9 -24864540#8 -24864540#7 -24864540#6 -24864540#5 -24864540#4 -24864540#3 -24864540#2 -24864540#1 -24864540#0 -335532208#4 -335532208#3 -335532208#2 -335532208#1 -335532208#0 335532207#0 335532207#1 335532207#2 335532207#3 335532207#4 335532207#5 11729090#0 11729090#1 11729090#2 11729090#3 11729090#4 335532206 54964356#0 54964356#1 54964356#2 318681923 -11851716#13 -11851716#12 -11851716#11 -11851716#10 -11851716#9 -11851716#8 -11851716#7 -11851716#6 -11851716#5 -11851716#4 -11851716#3 -11851716#2 -264432818#1 -264432818#0 -11698857 -294921196#2 -294921196#1 -294921196#0 11834303#0 11834303#1 11834303#2 11834303#3 11834303#4"/>
    </vehicle>
    <vehicle id="63" depart="63.00">
        <route edges="-366700511#1 -366700511#0 27643478 366700511#2 313329257#2 313329257#3 313329257#4 -318681921#3 -318681921#2 -318681921#1 -318681921#0 -335532205#1 -335532205#0 -318681923 -54964356#2 -54964356#1 -54964356#0 11690395#0 11690395#1 -11742581 11740080 -11691398#2 -11691398#1"/>
    </vehicle>
    <vehicle id="64" depart="64.00">
        <route edges="-11756576#2 11756576#2 11742581 -11690395#1 -11690395#0 -335532206 -11729090#4 -11729090#3 -11729090#2 -11729090#1 -11729090#0 -335532207#5 -335532207#4 -335532207#3 -335532207#2 -335532207#1 -335532207#0 -11837579#10 -11837579#9 -11837579#8 -11837579#7 -11837579#6 -11837579#5 -11837579#4 -11837579#3 -11837579#2 -11837579#1 -11837579#0 -625361998#5 -625361998#4 -625361998#3 -625361998#2 -625361998#1 -625361998#0 -625851681#1"/>
    </vehicle>
    <vehicle id="65" depart="65.00">
        <route edges="-292851769 -315436625#4 -315436625#3 -315436625#2 -315436625#1 -315436625#0 -11755338#1 -11755338#0 -392332379#1 -392332379#0 -11805275#4 -11805275#3 -11805275#2 -11805275#1 -11805275#0 625361998#0 625361998#1 625361998#2 625361998#3 625361998#4 625361998#5 292851770#0 292851770#1 292851770#2 292851770#3 292851770#4 292851770#5 292851770#6 292851770#7 292851770#8 292851770#9 292851770#10 292851770#11 11687001#0 -267173080#2"/>
    </vehicle>
    <vehicle id="66" depart="66.00">
        <route edges="-11698857 11698857 264432818#0 264432818#1 11851716#2 11851716#3 11851716#4 11851716#5 11851716#6 11851716#7 11851716#8 11851716#9 11851716#10 11851716#11 11851716#12 11851716#13 -318681923 -54964356#2 -54964356#1 -54964356#0 -335532206 -11729090#4 -11729090#3 -11729090#2 -11729090#1 -11729090#0 -335532207#5 -335532207#4 -335532207#3 -335532207#2 -335532207#1 -335532207#0 -11837579#10 -11837579#9 -11837579#8 -11837579#7 -11837579#6 -11837579#5 -11837579#4 -11837579#3 -11837579#2 -11837579#1 -11837579#0 292851770#0 292851770#1 292851770#2 292851770#3 292851770#4 292851770#5 292851770#6 292851770#7 292851770#8 292851770#9 292851770#10 292851770#11 292851770#12 292851770#13 292851770#14 292851770#15 292851770#16 292851770#17 292851770#18 292851770#19 292851770#20 -292851770#20 -292851770#19"/>
    </vehicle>
    <vehicle id="67" depart="67.00">
        <route edges="11853299#0 11730622#2 317470798#2 317470798#3 317470798#4 317470798#5 317470798#6 317470798#7 317470798#8 11837579#0 11837579#1 11837579#2 11837579#3 11837579#4 11837579#5 11837579#6 11837579#7 11837579#8 11837579#9 11837579#10 335532207#0 335532207#1 335532207#2 335532207#3 335532207#4 335532207#5 11729090#0 11729090#1 11729090#2 11729090#3 11729090#4 335532206 11690395#0 11690395#1 11690395#2 11690395#3 11690395#4 -11690395#4"/>
    </vehicle>
    <vehicle id="68" depart="68.00">
        <route edges="-11851716#12 11851716#12 11851716#13 335532205#0 335532205#1 318681921#0 318681921#1 11823485#0 -11742522"/>
    </vehicle>
    <vehicle id="69" depart="69.00">
        <route edges="-346964424#5 -346964424#4 -346964424#3 -346964424#2 -346964424#1 -346964424#0 -346964423#4 -346964423#3 -346964423#2 -346964423#1 -346964423#0 -11955884#3 -11955884#2 -11955884#1 -11955884#0 -625851681#1 -625851681#0 11826990#0 11826990#1 11826990#2 265895120 28727103#0 28727103#1 28727103#2"/>
    </vehicle>
    <vehicle id="70" depart="70.00">