<?xml version="1.0" encoding="UTF-8"?>

<!-- generated on 06/13/20 17:46:22 by Eclipse SUMO netconvert Version 1.6.0
<configuration xmlns:xsi="http://www.w3.org/2001/XMLSchema-instance" xsi:noNamespaceSchemaLocation="http://sumo.dlr.de/xsd/netconvertConfiguration.xsd">

    <input>
        <osm-files value="map.osm"/>
    </input>

    <output>
        <output-file value="map.net.xml"/>
    </output>

    <projection>
        <proj.utm value="true"/>
    </projection>

    <report>
        <aggregate-warnings value="5"/>
    </report>

</configuration>
-->

<net version="1.6" junctionCornerDetail="5" limitTurnSpeed="5.50" xmlns:xsi="http://www.w3.org/2001/XMLSchema-instance" xsi:noNamespaceSchemaLocation="http://sumo.dlr.de/xsd/net_file.xsd">

    <location netOffset="-588730.88,-4475948.13" convBoundary="0.00,0.00,2426.25,3099.51" origBoundary="-79.953762,40.429403,-79.925055,40.457139" projParameter="+proj=utm +zone=17 +ellps=WGS84 +datum=WGS84 +units=m +no_defs"/>

    <type id="highway.bridleway" priority="1" numLanes="1" speed="2.78" allow="pedestrian" oneway="1" width="2.00"/>
    <type id="highway.bus_guideway" priority="1" numLanes="1" speed="27.78" allow="bus" oneway="1"/>
    <type id="highway.cycleway" priority="1" numLanes="1" speed="8.33" allow="bicycle" oneway="0" width="1.00"/>
    <type id="highway.footway" priority="1" numLanes="1" speed="2.78" allow="pedestrian" oneway="1" width="2.00"/>
    <type id="highway.ford" priority="1" numLanes="1" speed="2.78" allow="army" oneway="0"/>
    <type id="highway.living_street" priority="2" numLanes="1" speed="2.78" disallow="tram rail_urban rail rail_electric rail_fast ship" oneway="0"/>
    <type id="highway.motorway" priority="14" numLanes="2" speed="39.44" allow="private emergency authority army vip passenger hov taxi bus coach delivery truck trailer motorcycle evehicle custom1 custom2" oneway="1"/>
    <type id="highway.motorway_link" priority="9" numLanes="1" speed="22.22" allow="private emergency authority army vip passenger hov taxi bus coach delivery truck trailer motorcycle evehicle custom1 custom2" oneway="1"/>
    <type id="highway.path" priority="1" numLanes="1" speed="2.78" allow="pedestrian bicycle" oneway="1" width="2.00"/>
    <type id="highway.pedestrian" priority="1" numLanes="1" speed="2.78" allow="pedestrian" oneway="1" width="2.00"/>
    <type id="highway.primary" priority="12" numLanes="2" speed="27.78" disallow="tram rail_urban rail rail_electric rail_fast ship" oneway="0"/>
    <type id="highway.primary_link" priority="7" numLanes="1" speed="22.22" disallow="tram rail_urban rail rail_electric rail_fast ship" oneway="0"/>
    <type id="highway.raceway" priority="15" numLanes="2" speed="83.33" allow="vip" oneway="0"/>
    <type id="highway.residential" priority="3" numLanes="1" speed="13.89" disallow="tram rail_urban rail rail_electric rail_fast ship" oneway="0"/>
    <type id="highway.secondary" priority="11" numLanes="1" speed="27.78" disallow="tram rail_urban rail rail_electric rail_fast ship" oneway="0"/>
    <type id="highway.secondary_link" priority="6" numLanes="1" speed="22.22" disallow="tram rail_urban rail rail_electric rail_fast ship" oneway="0"/>
    <type id="highway.service" priority="1" numLanes="1" speed="5.56" allow="pedestrian delivery bicycle" oneway="0"/>
    <type id="highway.stairs" priority="1" numLanes="1" speed="1.39" allow="pedestrian" oneway="1" width="2.00"/>
    <type id="highway.step" priority="1" numLanes="1" speed="1.39" allow="pedestrian" oneway="1" width="2.00"/>
    <type id="highway.steps" priority="1" numLanes="1" speed="1.39" allow="pedestrian" oneway="1" width="2.00"/>
    <type id="highway.tertiary" priority="10" numLanes="1" speed="22.22" disallow="tram rail_urban rail rail_electric rail_fast ship" oneway="0"/>
    <type id="highway.tertiary_link" priority="5" numLanes="1" speed="22.22" disallow="tram rail_urban rail rail_electric rail_fast ship" oneway="0"/>
    <type id="highway.track" priority="1" numLanes="1" speed="5.56" disallow="tram rail_urban rail rail_electric rail_fast ship" oneway="0"/>
    <type id="highway.trunk" priority="13" numLanes="2" speed="27.78" disallow="pedestrian bicycle tram rail_urban rail rail_electric rail_fast ship" oneway="0"/>
    <type id="highway.trunk_link" priority="8" numLanes="1" speed="22.22" disallow="pedestrian bicycle tram rail_urban rail rail_electric rail_fast ship" oneway="0"/>
    <type id="highway.unclassified" priority="4" numLanes="1" speed="13.89" disallow="tram rail_urban rail rail_electric rail_fast ship" oneway="0"/>
    <type id="highway.unsurfaced" priority="1" numLanes="1" speed="8.33" disallow="tram rail_urban rail rail_electric rail_fast ship" oneway="0"/>
    <type id="railway.highspeed" priority="21" numLanes="1" speed="69.44" allow="rail_fast" oneway="1"/>
    <type id="railway.light_rail" priority="19" numLanes="1" speed="27.78" allow="rail_urban" oneway="1"/>
    <type id="railway.preserved" priority="16" numLanes="1" speed="27.78" allow="rail" oneway="1"/>
    <type id="railway.rail" priority="20" numLanes="1" speed="44.44" allow="rail" oneway="1"/>
    <type id="railway.subway" priority="18" numLanes="1" speed="27.78" allow="rail_urban" oneway="1"/>
    <type id="railway.tram" priority="17" numLanes="1" speed="13.89" allow="tram" oneway="1"/>

    <edge id=":104202187_0" function="internal">
        <lane id=":104202187_0_0" index="0" allow="pedestrian delivery bicycle" speed="5.70" length="5.76" shape="1111.33,1664.83 1110.50,1663.26 1109.52,1662.23 1108.37,1661.72 1107.07,1661.74"/>
    </edge>
    <edge id=":104202187_1" function="internal">
        <lane id=":104202187_1_0" index="0" allow="pedestrian delivery bicycle" speed="7.52" length="14.02" shape="1111.33,1664.83 1110.08,1660.50 1110.27,1657.16 1111.89,1654.83 1114.95,1653.49"/>
    </edge>
    <edge id=":104202187_2" function="internal">
        <lane id=":104202187_2_0" index="0" allow="pedestrian delivery bicycle" speed="3.65" length="4.67" shape="1111.33,1664.83 1111.62,1663.41 1112.21,1662.74 1113.10,1662.81 1114.29,1663.62"/>
    </edge>
    <edge id=":104202187_3" function="internal">
        <lane id=":104202187_3_0" index="0" allow="pedestrian delivery bicycle" speed="4.88" length="5.21" shape="1116.33,1659.74 1114.96,1660.26 1114.16,1661.08 1113.94,1662.20 1114.29,1663.62"/>
    </edge>
    <edge id=":104202187_4" function="internal">
        <lane id=":104202187_4_0" index="0" disallow="tram rail_urban rail rail_electric rail_fast ship" speed="27.78" length="9.45" shape="1116.33,1659.74 1107.07,1661.74"/>
        <lane id=":104202187_4_1" index="1" disallow="tram rail_urban rail rail_electric rail_fast ship" speed="27.78" length="9.45" shape="1115.64,1656.62 1106.42,1658.60"/>
    </edge>
    <edge id=":104202187_6" function="internal">
        <lane id=":104202187_6_0" index="0" disallow="tram rail_urban rail rail_electric rail_fast ship" speed="3.65" length="2.34" shape="1115.64,1656.62 1114.29,1656.10 1113.73,1655.40"/>
    </edge>
    <edge id=":104202187_11" function="internal">
        <lane id=":104202187_11_0" index="0" disallow="tram rail_urban rail rail_electric rail_fast ship" speed="3.65" length="2.34" shape="1113.73,1655.40 1113.95,1654.54 1114.95,1653.49"/>
    </edge>
    <edge id=":104202187_7" function="internal">
        <lane id=":104202187_7_0" index="0" disallow="tram rail_urban rail rail_electric rail_fast ship" speed="27.78" length="9.36" shape="1105.13,1652.34 1114.25,1650.37"/>
        <lane id=":104202187_7_1" index="1" disallow="tram rail_urban rail rail_electric rail_fast ship" speed="27.78" length="9.36" shape="1105.78,1655.47 1114.95,1653.49"/>
    </edge>
    <edge id=":104202187_9" function="internal">
        <lane id=":104202187_9_0" index="0" allow="pedestrian delivery bicycle" speed="8.15" length="3.72" shape="1105.78,1655.47 1108.11,1655.61 1109.27,1656.35"/>
    </edge>
    <edge id=":104202187_10" function="internal">
        <lane id=":104202187_10_0" index="0" disallow="tram rail_urban rail rail_electric rail_fast ship" speed="3.65" length="2.34" shape="1105.78,1655.47 1107.11,1656.01 1107.67,1656.71"/>
    </edge>
    <edge id=":104202187_12" function="internal">
        <lane id=":104202187_12_0" index="0" allow="pedestrian delivery bicycle" speed="8.15" length="8.98" shape="1109.27,1656.35 1110.31,1657.01 1112.37,1659.69 1114.29,1663.62"/>
    </edge>
    <edge id=":104202187_13" function="internal">
        <lane id=":104202187_13_0" index="0" disallow="tram rail_urban rail rail_electric rail_fast ship" speed="3.65" length="2.34" shape="1107.67,1656.71 1107.44,1657.58 1106.42,1658.60"/>
    </edge>
    <edge id=":104202218_0" function="internal">
        <lane id=":104202218_0_0" index="0" allow="pedestrian delivery bicycle" speed="5.56" length="6.52" shape="1189.75,1667.28 1188.54,1665.53 1187.31,1664.35 1186.05,1663.75 1184.77,1663.72"/>
    </edge>
    <edge id=":104202218_1" function="internal">
        <lane id=":104202218_1_0" index="0" allow="pedestrian delivery bicycle" speed="5.56" length="11.85" shape="1189.75,1667.28 1188.46,1664.13 1188.66,1661.62 1190.36,1659.76 1193.55,1658.55"/>
    </edge>
    <edge id=":104202218_2" function="internal">
        <lane id=":104202218_2_0" index="0" allow="pedestrian delivery bicycle" speed="3.65" length="4.67" shape="1189.75,1667.28 1189.84,1665.84 1190.32,1665.09 1191.22,1665.04 1192.51,1665.67"/>
    </edge>
    <edge id=":104202218_3" function="internal">
        <lane id=":104202218_3_0" index="0" allow="pedestrian delivery bicycle" speed="4.78" length="5.42" shape="1194.25,1661.67 1192.79,1662.23 1192.02,1663.08 1191.92,1664.22 1192.51,1665.67"/>
    </edge>
    <edge id=":104202218_4" function="internal">
        <lane id=":104202218_4_0" index="0" allow="pedestrian delivery bicycle" speed="5.56" length="9.70" shape="1194.25,1661.67 1184.77,1663.72"/>
    </edge>
    <edge id=":104202218_5" function="internal">
        <lane id=":104202218_5_0" index="0" allow="pedestrian delivery bicycle" speed="3.65" length="4.67" shape="1194.25,1661.67 1192.90,1661.16 1192.34,1660.46 1192.55,1659.60 1193.55,1658.55"/>
    </edge>
    <edge id=":104202218_6" function="internal">
        <lane id=":104202218_6_0" index="0" allow="pedestrian delivery bicycle" speed="5.56" length="9.63" shape="1184.13,1660.59 1193.55,1658.55"/>
    </edge>
    <edge id=":104202218_7" function="internal">
        <lane id=":104202218_7_0" index="0" allow="pedestrian delivery bicycle" speed="5.56" length="10.49" shape="1184.13,1660.59 1186.47,1660.54 1188.64,1661.37 1190.66,1663.08 1192.51,1665.67"/>
    </edge>
    <edge id=":104202218_8" function="internal">
        <lane id=":104202218_8_0" index="0" allow="pedestrian delivery bicycle" speed="3.65" length="4.67" shape="1184.13,1660.59 1185.47,1661.13 1186.02,1661.84 1185.79,1662.70 1184.77,1663.72"/>
    </edge>
    <edge id=":104206707_0" function="internal">
        <lane id=":104206707_0_0" index="0" allow="pedestrian delivery bicycle" speed="3.65" length="4.67" shape="510.08,906.99 511.23,907.86 511.58,908.68 511.13,909.46 509.89,910.18"/>
    </edge>
    <edge id=":104206938_0" function="internal">
        <lane id=":104206938_0_0" index="0" allow="pedestrian delivery bicycle" speed="5.56" length="20.25" shape="427.28,1204.26 425.03,1200.32 422.81,1195.23 420.80,1190.03 419.17,1185.75"/>
    </edge>
    <edge id=":104206938_1" function="internal">
        <lane id=":104206938_1_0" index="0" allow="pedestrian delivery bicycle" speed="5.56" length="20.64" shape="427.28,1204.26 425.79,1200.08 425.40,1194.44 425.58,1188.62 425.81,1183.90"/>
    </edge>
    <edge id=":104206938_2" function="internal">
        <lane id=":104206938_2_0" index="0" allow="pedestrian delivery bicycle" speed="3.65" length="4.67" shape="427.28,1204.26 427.22,1202.82 427.63,1202.03 428.51,1201.88 429.86,1202.38"/>
    </edge>
    <edge id=":104206938_3" function="internal">
        <lane id=":104206938_3_0" index="0" allow="pedestrian delivery bicycle" speed="5.56" length="18.69" shape="429.01,1183.97 428.69,1188.38 428.30,1193.53 428.47,1198.50 429.86,1202.38"/>
    </edge>
    <edge id=":104206938_4" function="internal">
        <lane id=":104206938_4_0" index="0" allow="pedestrian delivery bicycle" speed="5.56" length="13.77" shape="429.01,1183.97 427.71,1187.32 424.82,1188.88 421.56,1188.43 419.17,1185.75"/>
    </edge>
    <edge id=":104206938_5" function="internal">
        <lane id=":104206938_5_0" index="0" allow="pedestrian delivery bicycle" speed="3.65" length="4.67" shape="429.01,1183.97 428.19,1185.15 427.38,1185.53 426.59,1185.12 425.81,1183.90"/>
    </edge>
    <edge id=":104206938_6" function="internal">
        <lane id=":104206938_6_0" index="0" allow="pedestrian delivery bicycle" speed="5.18" length="10.13" shape="422.14,1184.56 423.67,1187.80 424.80,1188.77 425.51,1187.47 425.81,1183.90"/>
    </edge>
    <edge id=":104206938_7" function="internal">
        <lane id=":104206938_7_0" index="0" allow="pedestrian delivery bicycle" speed="5.56" length="19.46" shape="422.14,1184.56 423.71,1188.74 425.59,1193.70 427.68,1198.54 429.86,1202.38"/>
    </edge>
    <edge id=":104206938_8" function="internal">
        <lane id=":104206938_8_0" index="0" allow="pedestrian delivery bicycle" speed="3.65" length="4.67" shape="422.14,1184.56 421.84,1185.97 421.25,1186.64 420.35,1186.57 419.17,1185.75"/>
    </edge>
    <edge id=":104361652_0" function="internal">
        <lane id=":104361652_0_0" index="0" disallow="tram rail_urban rail rail_electric rail_fast ship" speed="13.89" length="12.42" shape="1158.65,1945.82 1146.27,1944.87"/>
    </edge>
    <edge id=":104361652_1" function="internal">
        <lane id=":104361652_1_0" index="0" disallow="tram rail_urban rail rail_electric rail_fast ship" speed="7.86" length="6.13" shape="1158.65,1945.82 1154.71,1945.01 1153.00,1943.79"/>
    </edge>
    <edge id=":104361652_2" function="internal">
        <lane id=":104361652_2_0" index="0" disallow="tram rail_urban rail rail_electric rail_fast ship" speed="3.65" length="2.34" shape="1158.65,1945.82 1157.50,1944.95 1157.15,1944.13"/>
    </edge>
    <edge id=":104361652_9" function="internal">
        <lane id=":104361652_9_0" index="0" disallow="tram rail_urban rail rail_electric rail_fast ship" speed="7.86" length="8.38" shape="1153.00,1943.79 1152.08,1943.13 1150.76,1940.18 1150.75,1936.16"/>
    </edge>
    <edge id=":104361652_10" function="internal">
        <lane id=":104361652_10_0" index="0" disallow="tram rail_urban rail rail_electric rail_fast ship" speed="3.65" length="2.34" shape="1157.15,1944.13 1157.59,1943.35 1158.84,1942.63"/>
    </edge>
    <edge id=":104361652_3" function="internal">
        <lane id=":104361652_3_0" index="0" disallow="tram rail_urban rail rail_electric rail_fast ship" speed="6.34" length="9.04" shape="1153.92,1936.61 1153.93,1939.11 1154.75,1940.95 1156.39,1942.12 1158.84,1942.63"/>
    </edge>
    <edge id=":104361652_4" function="internal">
        <lane id=":104361652_4_0" index="0" disallow="tram rail_urban rail rail_electric rail_fast ship" speed="7.69" length="12.64" shape="1153.92,1936.61 1152.97,1940.47 1151.37,1943.13 1149.14,1944.60 1146.27,1944.87"/>
    </edge>
    <edge id=":104361652_5" function="internal">
        <lane id=":104361652_5_0" index="0" disallow="tram rail_urban rail rail_electric rail_fast ship" speed="3.65" length="4.67" shape="1153.92,1936.61 1152.96,1937.68 1152.11,1937.96 1151.38,1937.46 1150.75,1936.16"/>
    </edge>
    <edge id=":104361652_6" function="internal">
        <lane id=":104361652_6_0" index="0" disallow="tram rail_urban rail rail_electric rail_fast ship" speed="6.14" length="7.68" shape="1146.59,1941.69 1148.10,1941.47 1149.30,1940.48 1150.18,1938.70 1150.75,1936.16"/>
    </edge>
    <edge id=":104361652_7" function="internal">
        <lane id=":104361652_7_0" index="0" disallow="tram rail_urban rail rail_electric rail_fast ship" speed="13.89" length="12.29" shape="1146.59,1941.69 1158.84,1942.63"/>
    </edge>
    <edge id=":104361652_8" function="internal">
        <lane id=":104361652_8_0" index="0" disallow="tram rail_urban rail rail_electric rail_fast ship" speed="3.65" length="2.34" shape="1146.59,1941.69 1147.70,1942.61 1148.02,1943.44"/>
    </edge>
    <edge id=":104361652_11" function="internal">
        <lane id=":104361652_11_0" index="0" disallow="tram rail_urban rail rail_electric rail_fast ship" speed="3.65" length="2.34" shape="1148.02,1943.44 1147.54,1944.20 1146.27,1944.87"/>
    </edge>
    <edge id=":104361659_0" function="internal">
        <lane id=":104361659_0_0" index="0" disallow="tram rail_urban rail rail_electric rail_fast ship" speed="3.65" length="4.67" shape="1102.41,1940.43 1101.29,1939.52 1100.98,1938.68 1101.46,1937.92 1102.73,1937.25"/>
    </edge>
    <edge id=":104382834_0" function="internal">
        <lane id=":104382834_0_0" index="0" allow="pedestrian delivery bicycle" speed="4.98" length="5.07" shape="1395.99,1127.43 1395.45,1126.14 1394.63,1125.36 1393.52,1125.08 1392.15,1125.31"/>
    </edge>
    <edge id=":104382834_1" function="internal">
        <lane id=":104382834_1_0" index="0" allow="pedestrian delivery bicycle" speed="6.93" length="10.28" shape="1395.99,1127.43 1395.65,1124.59 1396.27,1122.33 1397.84,1120.64 1400.37,1119.53"/>
    </edge>
    <edge id=":104382834_2" function="internal">
        <lane id=":104382834_2_0" index="0" allow="pedestrian delivery bicycle" speed="3.65" length="4.67" shape="1395.99,1127.43 1396.46,1126.07 1397.13,1125.48 1398.01,1125.66 1399.08,1126.62"/>
    </edge>
    <edge id=":104382834_3" function="internal">
        <lane id=":104382834_3_0" index="0" allow="pedestrian delivery bicycle" speed="5.13" length="5.16" shape="1401.22,1122.61 1399.97,1123.17 1399.20,1124.02 1398.91,1125.17 1399.08,1126.62"/>
    </edge>
    <edge id=":104382834_4" function="internal">
        <lane id=":104382834_4_0" index="0" disallow="tram rail_urban rail rail_electric rail_fast ship" speed="13.89" length="9.47" shape="1401.22,1122.61 1392.15,1125.31"/>
    </edge>
    <edge id=":104382834_5" function="internal">
        <lane id=":104382834_5_0" index="0" disallow="tram rail_urban rail rail_electric rail_fast ship" speed="3.65" length="2.34" shape="1401.22,1122.61 1399.85,1122.16 1399.25,1121.49"/>
    </edge>
    <edge id=":104382834_9" function="internal">
        <lane id=":104382834_9_0" index="0" disallow="tram rail_urban rail rail_electric rail_fast ship" speed="3.65" length="2.34" shape="1399.25,1121.49 1399.43,1120.62 1400.37,1119.53"/>
    </edge>
    <edge id=":104382834_6" function="internal">
        <lane id=":104382834_6_0" index="0" disallow="tram rail_urban rail rail_electric rail_fast ship" speed="13.89" length="9.60" shape="1391.17,1122.27 1400.37,1119.53"/>
    </edge>
    <edge id=":104382834_7" function="internal">
        <lane id=":104382834_7_0" index="0" allow="pedestrian delivery bicycle" speed="6.82" length="5.22" shape="1391.17,1122.27 1394.01,1121.79 1396.28,1122.35"/>
    </edge>
    <edge id=":104382834_8" function="internal">
        <lane id=":104382834_8_0" index="0" disallow="tram rail_urban rail rail_electric rail_fast ship" speed="3.65" length="2.34" shape="1391.17,1122.27 1392.56,1122.66 1393.18,1123.30"/>
    </edge>
    <edge id=":104382834_10" function="internal">
        <lane id=":104382834_10_0" index="0" allow="pedestrian delivery bicycle" speed="6.82" length="5.22" shape="1396.28,1122.35 1397.97,1123.97 1399.08,1126.62"/>
    </edge>
    <edge id=":104382834_11" function="internal">
        <lane id=":104382834_11_0" index="0" disallow="tram rail_urban rail rail_electric rail_fast ship" speed="3.65" length="2.34" shape="1393.18,1123.30 1393.04,1124.19 1392.15,1125.31"/>
    </edge>
    <edge id=":104382840_0" function="internal">
        <lane id=":104382840_0_0" index="0" allow="pedestrian delivery bicycle" speed="5.08" length="5.02" shape="1405.64,1164.03 1405.08,1162.79 1404.25,1162.02 1403.15,1161.71 1401.78,1161.88"/>
    </edge>
    <edge id=":104382840_1" function="internal">
        <lane id=":104382840_1_0" index="0" allow="pedestrian delivery bicycle" speed="5.56" length="9.36" shape="1405.64,1164.03 1403.17,1155.00"/>
    </edge>
    <edge id=":104382840_2" function="internal">
        <lane id=":104382840_2_0" index="0" allow="pedestrian delivery bicycle" speed="3.65" length="4.67" shape="1405.64,1164.03 1406.08,1162.66 1406.74,1162.05 1407.62,1162.22 1408.72,1163.15"/>
    </edge>
    <edge id=":104382840_3" function="internal">
        <lane id=":104382840_3_0" index="0" allow="pedestrian delivery bicycle" speed="5.56" length="9.29" shape="1406.27,1154.19 1408.72,1163.15"/>
    </edge>
    <edge id=":104382840_4" function="internal">
        <lane id=":104382840_4_0" index="0" allow="pedestrian delivery bicycle" speed="5.56" length="10.14" shape="1406.27,1154.19 1406.58,1156.95 1405.94,1159.15 1404.34,1160.79 1401.78,1161.88"/>
    </edge>
    <edge id=":104382840_5" function="internal">
        <lane id=":104382840_5_0" index="0" allow="pedestrian delivery bicycle" speed="3.65" length="4.67" shape="1406.27,1154.19 1405.80,1155.55 1405.13,1156.14 1404.25,1155.96 1403.17,1155.00"/>
    </edge>
    <edge id=":104382840_6" function="internal">
        <lane id=":104382840_6_0" index="0" allow="pedestrian delivery bicycle" speed="5.04" length="5.00" shape="1400.96,1158.78 1402.22,1158.25 1403.01,1157.44 1403.33,1156.36 1403.17,1155.00"/>
    </edge>
    <edge id=":104382840_7" function="internal">
        <lane id=":104382840_7_0" index="0" allow="pedestrian delivery bicycle" speed="5.56" length="10.11" shape="1400.96,1158.78 1403.72,1158.46 1405.93,1159.08 1407.59,1160.64 1408.72,1163.15"/>
    </edge>
    <edge id=":104382840_8" function="internal">
        <lane id=":104382840_8_0" index="0" allow="pedestrian delivery bicycle" speed="3.65" length="4.67" shape="1400.96,1158.78 1402.33,1159.25 1402.92,1159.92 1402.74,1160.80 1401.78,1161.88"/>
    </edge>
    <edge id=":104383352_0" function="internal">
        <lane id=":104383352_0_0" index="0" disallow="tram rail_urban rail rail_electric rail_fast ship" speed="5.28" length="6.52" shape="999.88,1684.45 999.13,1684.99 998.95,1686.15 999.34,1687.94 1000.30,1690.35"/>
    </edge>
    <edge id=":104383352_1" function="internal">
        <lane id=":104383352_1_0" index="0" disallow="tram rail_urban rail rail_electric rail_fast ship" speed="27.78" length="6.79" shape="999.88,1684.45 997.95,1684.88 996.64,1685.20 995.35,1685.58 993.46,1686.17"/>
        <lane id=":104383352_1_1" index="1" disallow="tram rail_urban rail rail_electric rail_fast ship" speed="27.78" length="6.79" shape="999.21,1681.32 997.20,1681.77 995.83,1682.11 994.48,1682.50 992.51,1683.11"/>
    </edge>
    <edge id=":104383352_3" function="internal">
        <lane id=":104383352_3_0" index="0" disallow="tram rail_urban rail rail_electric rail_fast ship" speed="3.65" length="2.34" shape="999.21,1681.32 997.86,1680.80 997.31,1680.10"/>
    </edge>
    <edge id=":104383352_8" function="internal">
        <lane id=":104383352_8_0" index="0" disallow="tram rail_urban rail rail_electric rail_fast ship" speed="3.65" length="2.34" shape="997.31,1680.10 997.53,1679.23 998.53,1678.20"/>
    </edge>
    <edge id=":104383352_4" function="internal">
        <lane id=":104383352_4_0" index="0" disallow="tram rail_urban rail rail_electric rail_fast ship" speed="27.78" length="7.35" shape="990.62,1676.99 992.75,1676.34 994.21,1675.91 995.69,1675.55 997.86,1675.07"/>
        <lane id=":104383352_4_1" index="1" disallow="tram rail_urban rail rail_electric rail_fast ship" speed="27.78" length="7.35" shape="991.57,1680.05 993.61,1679.42 995.02,1679.01 996.44,1678.66 998.53,1678.20"/>
    </edge>
    <edge id=":104383352_6" function="internal">
        <lane id=":104383352_6_0" index="0" disallow="tram rail_urban rail rail_electric rail_fast ship" speed="8.40" length="2.85" shape="991.57,1680.05 993.43,1680.29 994.17,1680.92"/>
    </edge>
    <edge id=":104383352_7" function="internal">
        <lane id=":104383352_7_0" index="0" disallow="tram rail_urban rail rail_electric rail_fast ship" speed="3.65" length="2.34" shape="991.57,1680.05 992.95,1680.46 993.57,1681.11"/>
    </edge>
    <edge id=":104383352_9" function="internal">
        <lane id=":104383352_9_0" index="0" disallow="tram rail_urban rail rail_electric rail_fast ship" speed="8.40" length="11.34" shape="994.17,1680.92 995.51,1682.08 997.80,1685.44 1000.30,1690.35"/>
    </edge>
    <edge id=":104383352_10" function="internal">
        <lane id=":104383352_10_0" index="0" disallow="tram rail_urban rail rail_electric rail_fast ship" speed="3.65" length="2.34" shape="993.57,1681.11 993.42,1681.99 992.51,1683.11"/>
    </edge>
    <edge id=":104396718_0" function="internal">
        <lane id=":104396718_0_0" index="0" disallow="tram rail_urban rail rail_electric rail_fast ship" speed="10.51" length="1.68" shape="1381.93,1900.41 1381.80,1899.92 1381.74,1899.59 1381.73,1899.24 1381.76,1898.75"/>
    </edge>
    <edge id=":104396718_1" function="internal">
        <lane id=":104396718_1_0" index="0" disallow="tram rail_urban rail rail_electric rail_fast ship" speed="13.89" length="0.56" shape="1384.95,1898.98 1384.94,1899.15 1384.94,1899.26 1384.97,1899.37 1385.01,1899.53"/>
    </edge>
    <edge id=":104396732_0" function="internal">
        <lane id=":104396732_0_0" index="0" disallow="tram rail_urban rail rail_electric rail_fast ship" speed="13.89" length="14.48" shape="1394.85,1909.45 1391.87,1911.67 1389.07,1914.00 1386.13,1915.99 1382.76,1917.20"/>
    </edge>
    <edge id=":104396732_1" function="internal">
        <lane id=":104396732_1_0" index="0" disallow="tram rail_urban rail rail_electric rail_fast ship" speed="7.57" length="2.26" shape="1394.85,1909.45 1392.78,1910.38"/>
    </edge>
    <edge id=":104396732_2" function="internal">
        <lane id=":104396732_2_0" index="0" disallow="tram rail_urban rail rail_electric rail_fast ship" speed="4.08" length="1.44" shape="1394.85,1909.45 1393.40,1909.46"/>
    </edge>
    <edge id=":104396732_9" function="internal">
        <lane id=":104396732_9_0" index="0" disallow="tram rail_urban rail rail_electric rail_fast ship" speed="7.57" length="13.14" shape="1392.78,1910.38 1390.83,1911.27 1387.55,1911.13 1385.02,1909.04 1383.23,1904.99"/>
    </edge>
    <edge id=":104396732_10" function="internal">
        <lane id=":104396732_10_0" index="0" disallow="tram rail_urban rail rail_electric rail_fast ship" speed="4.08" length="3.23" shape="1393.40,1909.46 1392.62,1909.03 1392.50,1908.14 1393.05,1906.80"/>
    </edge>
    <edge id=":104396732_3" function="internal">
        <lane id=":104396732_3_0" index="0" disallow="tram rail_urban rail rail_electric rail_fast ship" speed="6.26" length="15.05" shape="1386.30,1904.11 1388.25,1909.65 1390.02,1911.94 1391.62,1911.00 1393.05,1906.80"/>
    </edge>
    <edge id=":104396732_4" function="internal">
        <lane id=":104396732_4_0" index="0" disallow="tram rail_urban rail rail_electric rail_fast ship" speed="8.04" length="15.41" shape="1386.30,1904.11 1387.34,1909.37 1387.09,1913.30 1385.57,1915.91 1382.76,1917.20"/>
    </edge>
    <edge id=":104396732_5" function="internal">
        <lane id=":104396732_5_0" index="0" disallow="tram rail_urban rail rail_electric rail_fast ship" speed="3.65" length="4.67" shape="1386.30,1904.11 1385.86,1905.49 1385.20,1906.09 1384.32,1905.92 1383.23,1904.99"/>
    </edge>
    <edge id=":104396732_6" function="internal">
        <lane id=":104396732_6_0" index="0" disallow="tram rail_urban rail rail_electric rail_fast ship" speed="7.87" length="10.12" shape="1381.68,1914.36 1383.09,1912.85 1383.82,1910.78 1383.86,1908.16 1383.23,1904.99"/>
    </edge>
    <edge id=":104396732_7" function="internal">
        <lane id=":104396732_7_0" index="0" disallow="tram rail_urban rail rail_electric rail_fast ship" speed="13.08" length="14.09" shape="1381.68,1914.36 1385.02,1912.65 1388.47,1911.33 1391.37,1909.63 1393.05,1906.80"/>
    </edge>
    <edge id=":104396732_8" function="internal">
        <lane id=":104396732_8_0" index="0" disallow="tram rail_urban rail rail_electric rail_fast ship" speed="3.79" length="2.21" shape="1381.68,1914.36 1383.02,1914.67 1383.64,1915.24"/>
    </edge>
    <edge id=":104396732_11" function="internal">
        <lane id=":104396732_11_0" index="0" disallow="tram rail_urban rail rail_electric rail_fast ship" speed="3.79" length="2.21" shape="1383.64,1915.24 1383.56,1916.08 1382.76,1917.20"/>
    </edge>
    <edge id=":104439711_0" function="internal">
        <lane id=":104439711_0_0" index="0" disallow="tram rail_urban rail rail_electric rail_fast ship" speed="3.65" length="4.67" shape="1482.61,1842.10 1483.24,1843.40 1483.18,1844.29 1482.43,1844.78 1480.99,1844.86"/>
    </edge>
    <edge id=":104472678_0" function="internal">
        <lane id=":104472678_0_0" index="0" disallow="tram rail_urban rail rail_electric rail_fast ship" speed="13.89" length="15.82" shape="1382.66,1917.22 1378.82,1917.73 1374.80,1917.94 1370.76,1917.86 1366.90,1917.52"/>
    </edge>
    <edge id=":104472678_1" function="internal">
        <lane id=":104472678_1_0" index="0" disallow="tram rail_urban rail rail_electric rail_fast ship" speed="8.92" length="3.32" shape="1382.66,1917.22 1379.58,1917.15 1379.37,1917.05"/>
    </edge>
    <edge id=":104472678_2" function="internal">
        <lane id=":104472678_2_0" index="0" disallow="tram rail_urban rail rail_electric rail_fast ship" speed="3.76" length="2.06" shape="1382.66,1917.22 1381.35,1916.96 1380.80,1916.48"/>
    </edge>
    <edge id=":104472678_9" function="internal">
        <lane id=":104472678_9_0" index="0" disallow="tram rail_urban rail rail_electric rail_fast ship" speed="8.92" length="11.06" shape="1379.37,1917.05 1376.77,1915.81 1374.23,1913.18 1371.97,1909.26"/>
    </edge>
    <edge id=":104472678_10" function="internal">