<configuration>
<input>
<net-file value="Carte_Villes.net.xml"/>
<route-files value="Trajets.odtrips.xml"/>
</input>
<time>
<begin value="0"/>
<end value="2000"/>
</time>
</configuration>