<additional>
<tazs>
<taz id="1" edges="Ariana-Tunis">
</taz>
<taz id="2" edges="Benarous-Rades">
</taz>
</tazs>
</additional>