<additional>
<tazs>
<taz id="1" edges="1-2">
</taz>
<taz id="2" edges="2-4">
</taz>
<taz id="3" edges="1-3">
</taz>
<taz id="4" edges="2-3">
</taz>
<taz id="5" edges="3-4">
</taz>
</tazs>
</additional>