<?xml version="1.0" encoding="UTF-8"?>

<!-- generated on 08/05/2020 07:31:55 by Eclipse SUMO netedit Version 1.5.0
<configuration xmlns:xsi="http://www.w3.org/2001/XMLSchema-instance" xsi:noNamespaceSchemaLocation="http://sumo.dlr.de/xsd/netconvertConfiguration.xsd">

    <input>
        <sumo-net-file value="network.net.xml"/>
    </input>

    <output>
        <output-file value="network.net.xml"/>
    </output>

    <processing>
        <geometry.min-radius.fix.railways value="false"/>
        <geometry.max-grade.fix value="false"/>
        <offset.disable-normalization value="true"/>
        <lefthand value="false"/>
    </processing>

    <junctions>
        <no-turnarounds value="true"/>
        <junctions.corner-detail value="5"/>
        <junctions.limit-turn-speed value="5.5"/>
        <rectangular-lane-cut value="false"/>
    </junctions>

    <pedestrian>
        <walkingareas value="false"/>
    </pedestrian>

    <report>
        <aggregate-warnings value="5"/>
    </report>

</configuration>
-->

<net version="1.3" junctionCornerDetail="5" limitTurnSpeed="5.50" xmlns:xsi="http://www.w3.org/2001/XMLSchema-instance" xsi:noNamespaceSchemaLocation="http://sumo.dlr.de/xsd/net_file.xsd">

    <location netOffset="-683530.57,-3742340.52" convBoundary="0.00,0.00,1207.25,1549.00" origBoundary="10.982944,33.805203,10.994104,33.819215" projParameter="+proj=utm +zone=32 +ellps=WGS84 +datum=WGS84 +units=m +no_defs"/>

    <type id="highway.bridleway" priority="1" numLanes="1" speed="2.78" allow="pedestrian" oneway="1" width="2.00"/>
    <type id="highway.bus_guideway" priority="1" numLanes="1" speed="27.78" allow="bus" oneway="1"/>
    <type id="highway.cycleway" priority="1" numLanes="1" speed="8.33" allow="bicycle" oneway="0" width="1.00"/>
    <type id="highway.footway" priority="1" numLanes="1" speed="2.78" allow="pedestrian" oneway="1" width="2.00"/>
    <type id="highway.ford" priority="1" numLanes="1" speed="2.78" allow="army" oneway="0"/>
    <type id="highway.living_street" priority="2" numLanes="1" speed="2.78" disallow="tram rail_urban rail rail_electric rail_fast ship" oneway="0"/>
    <type id="highway.motorway" priority="14" numLanes="2" speed="39.44" allow="private emergency authority army vip passenger hov taxi bus coach delivery truck trailer motorcycle evehicle custom1 custom2" oneway="1"/>
    <type id="highway.motorway_link" priority="9" numLanes="1" speed="22.22" allow="private emergency authority army vip passenger hov taxi bus coach delivery truck trailer motorcycle evehicle custom1 custom2" oneway="1"/>
    <type id="highway.path" priority="1" numLanes="1" speed="2.78" allow="pedestrian bicycle" oneway="1" width="2.00"/>
    <type id="highway.pedestrian" priority="1" numLanes="1" speed="2.78" allow="pedestrian" oneway="1" width="2.00"/>
    <type id="highway.primary" priority="12" numLanes="2" speed="27.78" disallow="tram rail_urban rail rail_electric rail_fast ship" oneway="0"/>
    <type id="highway.primary_link" priority="7" numLanes="1" speed="22.22" disallow="tram rail_urban rail rail_electric rail_fast ship" oneway="0"/>
    <type id="highway.raceway" priority="15" numLanes="2" speed="83.33" allow="vip" oneway="0"/>
    <type id="highway.residential" priority="3" numLanes="1" speed="13.89" disallow="tram rail_urban rail rail_electric rail_fast ship" oneway="0"/>
    <type id="highway.secondary" priority="11" numLanes="1" speed="27.78" disallow="tram rail_urban rail rail_electric rail_fast ship" oneway="0"/>
    <type id="highway.secondary_link" priority="6" numLanes="1" speed="22.22" disallow="tram rail_urban rail rail_electric rail_fast ship" oneway="0"/>
    <type id="highway.service" priority="1" numLanes="1" speed="5.56" allow="pedestrian delivery bicycle" oneway="0"/>
    <type id="highway.stairs" priority="1" numLanes="1" speed="1.39" allow="pedestrian" oneway="1" width="2.00"/>
    <type id="highway.step" priority="1" numLanes="1" speed="1.39" allow="pedestrian" oneway="1" width="2.00"/>
    <type id="highway.steps" priority="1" numLanes="1" speed="1.39" allow="pedestrian" oneway="1" width="2.00"/>
    <type id="highway.tertiary" priority="10" numLanes="1" speed="22.22" disallow="tram rail_urban rail rail_electric rail_fast ship" oneway="0"/>
    <type id="highway.tertiary_link" priority="5" numLanes="1" speed="22.22" disallow="tram rail_urban rail rail_electric rail_fast ship" oneway="0"/>
    <type id="highway.track" priority="1" numLanes="1" speed="5.56" disallow="tram rail_urban rail rail_electric rail_fast ship" oneway="0"/>
    <type id="highway.trunk" priority="13" numLanes="2" speed="27.78" disallow="pedestrian bicycle tram rail_urban rail rail_electric rail_fast ship" oneway="0"/>
    <type id="highway.trunk_link" priority="8" numLanes="1" speed="22.22" disallow="pedestrian bicycle tram rail_urban rail rail_electric rail_fast ship" oneway="0"/>
    <type id="highway.unclassified" priority="4" numLanes="1" speed="13.89" disallow="tram rail_urban rail rail_electric rail_fast ship" oneway="0"/>
    <type id="highway.unsurfaced" priority="1" numLanes="1" speed="8.33" disallow="tram rail_urban rail rail_electric rail_fast ship" oneway="0"/>
    <type id="railway.highspeed" priority="21" numLanes="1" speed="69.44" allow="rail_fast" oneway="1"/>
    <type id="railway.light_rail" priority="19" numLanes="1" speed="27.78" allow="rail_urban" oneway="1"/>
    <type id="railway.preserved" priority="16" numLanes="1" speed="27.78" allow="rail" oneway="1"/>
    <type id="railway.rail" priority="20" numLanes="1" speed="44.44" allow="rail" oneway="1"/>
    <type id="railway.subway" priority="18" numLanes="1" speed="27.78" allow="rail_urban" oneway="1"/>
    <type id="railway.tram" priority="17" numLanes="1" speed="13.89" allow="tram" oneway="1"/>

    <edge id=":1742031714_0" function="internal">
        <lane id=":1742031714_0_0" index="0" disallow="tram rail_urban rail rail_electric rail_fast ship" speed="27.78" length="7.92" shape="741.47,257.78 739.33,258.70 738.02,259.67 736.72,260.66 734.60,261.64"/>
    </edge>
    <edge id=":1742031714_1" function="internal">
        <lane id=":1742031714_1_0" index="0" disallow="tram rail_urban rail rail_electric rail_fast ship" speed="5.36" length="4.45" shape="741.47,257.78 737.57,258.75 737.14,258.69"/>
    </edge>
    <edge id=":1742031714_4" function="internal">
        <lane id=":1742031714_4_0" index="0" disallow="tram rail_urban rail rail_electric rail_fast ship" speed="5.36" length="6.71" shape="737.14,258.69 735.98,258.54 736.70,257.14 739.72,254.56"/>
    </edge>
    <edge id=":1742031714_2" function="internal">
        <lane id=":1742031714_2_0" index="0" disallow="tram rail_urban rail rail_electric rail_fast ship" speed="25.93" length="7.43" shape="733.58,258.60 735.59,257.79 736.86,256.97 738.02,255.96 739.72,254.56"/>
    </edge>
    <edge id=":1742031714_3" function="internal">
        <lane id=":1742031714_3_0" index="0" disallow="tram rail_urban rail rail_electric rail_fast ship" speed="3.65" length="2.15" shape="733.58,258.60 734.97,258.98 735.47,259.48"/>
    </edge>
    <edge id=":1742031714_5" function="internal">
        <lane id=":1742031714_5_0" index="0" disallow="tram rail_urban rail rail_electric rail_fast ship" speed="3.65" length="2.52" shape="735.47,259.48 735.60,259.61 735.48,260.49 734.60,261.64"/>
    </edge>
    <edge id=":1742031719_0" function="internal">
        <lane id=":1742031719_0_0" index="0" disallow="tram rail_urban rail rail_electric rail_fast ship" speed="27.78" length="0.10" shape="707.16,270.28 707.07,270.31"/>
    </edge>
    <edge id=":1742031719_1" function="internal">
        <lane id=":1742031719_1_0" index="0" disallow="tram rail_urban rail rail_electric rail_fast ship" speed="3.65" length="2.34" shape="707.16,270.28 705.78,269.86 705.17,269.21"/>
    </edge>
    <edge id=":1742031719_4" function="internal">
        <lane id=":1742031719_4_0" index="0" disallow="tram rail_urban rail rail_electric rail_fast ship" speed="3.65" length="2.34" shape="705.17,269.21 705.32,268.33 706.24,267.22"/>
    </edge>
    <edge id=":1742031719_2" function="internal">
        <lane id=":1742031719_2_0" index="0" disallow="tram rail_urban rail rail_electric rail_fast ship" speed="27.78" length="0.10" shape="706.33,267.19 706.24,267.22"/>
    </edge>
    <edge id=":1742031719_3" function="internal">
        <lane id=":1742031719_3_0" index="0" disallow="tram rail_urban rail rail_electric rail_fast ship" speed="3.65" length="2.34" shape="706.33,267.19 707.68,267.69 708.26,268.38"/>
    </edge>
    <edge id=":1742031719_5" function="internal">
        <lane id=":1742031719_5_0" index="0" disallow="tram rail_urban rail rail_electric rail_fast ship" speed="3.65" length="2.34" shape="708.26,268.38 708.05,269.25 707.07,270.31"/>
    </edge>
    <edge id=":1921985391_0" function="internal">
        <lane id=":1921985391_0_0" index="0" disallow="tram rail_urban rail rail_electric rail_fast ship" speed="22.22" length="6.41" shape="751.80,509.57 750.18,515.77"/>
    </edge>
    <edge id=":1921985391_1" function="internal">
        <lane id=":1921985391_1_0" index="0" disallow="tram rail_urban rail rail_electric rail_fast ship" speed="5.52" length="7.17" shape="751.80,509.57 750.33,513.87 749.10,515.51 748.69,515.11"/>
    </edge>
    <edge id=":1921985391_4" function="internal">
        <lane id=":1921985391_4_0" index="0" disallow="tram rail_urban rail rail_electric rail_fast ship" speed="5.52" length="4.59" shape="748.69,515.11 748.10,514.50 747.33,510.84"/>
    </edge>
    <edge id=":1921985391_2" function="internal">
        <lane id=":1921985391_2_0" index="0" disallow="tram rail_urban rail rail_electric rail_fast ship" speed="14.25" length="4.19" shape="747.08,514.98 747.37,513.78 747.50,512.93 747.48,512.07 747.33,510.84"/>
    </edge>
    <edge id=":1921985391_3" function="internal">
        <lane id=":1921985391_3_0" index="0" disallow="tram rail_urban rail rail_electric rail_fast ship" speed="3.65" length="2.34" shape="747.08,514.98 748.15,514.01 749.02,513.82"/>
    </edge>
    <edge id=":1921985391_5" function="internal">
        <lane id=":1921985391_5_0" index="0" disallow="tram rail_urban rail rail_electric rail_fast ship" speed="3.65" length="2.34" shape="749.02,513.82 749.70,514.41 750.18,515.77"/>
    </edge>
    <edge id=":1922527882_0" function="internal">
        <lane id=":1922527882_0_0" index="0" disallow="tram rail_urban rail rail_electric rail_fast ship" speed="27.78" length="13.02" shape="766.92,326.28 766.78,322.84 766.64,319.77 766.58,316.70 766.73,313.27"/>
    </edge>
    <edge id=":1922527882_1" function="internal">
        <lane id=":1922527882_1_0" index="0" disallow="tram rail_urban rail rail_electric rail_fast ship" speed="7.26" length="5.09" shape="766.92,326.28 767.46,322.58 768.33,321.55"/>
    </edge>
    <edge id=":1922527882_2" function="internal">
        <lane id=":1922527882_2_0" index="0" disallow="tram rail_urban rail rail_electric rail_fast ship" speed="3.65" length="2.34" shape="766.92,326.28 767.67,325.05 768.45,324.62"/>
    </edge>
    <edge id=":1922527882_9" function="internal">
        <lane id=":1922527882_9_0" index="0" disallow="tram rail_urban rail rail_electric rail_fast ship" speed="7.26" length="9.28" shape="768.33,321.55 769.30,320.39 772.46,319.71 776.91,320.55"/>
    </edge>
    <edge id=":1922527882_10" function="internal">
        <lane id=":1922527882_10_0" index="0" disallow="tram rail_urban rail rail_electric rail_fast ship" speed="3.65" length="2.34" shape="768.45,324.62 769.27,324.99 770.12,326.15"/>
    </edge>
    <edge id=":1922527882_3" function="internal">
        <lane id=":1922527882_3_0" index="0" disallow="tram rail_urban rail rail_electric rail_fast ship" speed="5.54" length="7.84" shape="775.96,323.60 773.36,323.07 771.52,323.31 770.44,324.34 770.12,326.15"/>
    </edge>
    <edge id=":1922527882_4" function="internal">
        <lane id=":1922527882_4_0" index="0" disallow="tram rail_urban rail rail_electric rail_fast ship" speed="9.00" length="15.05" shape="775.96,323.60 771.71,321.81 768.76,319.49 767.10,316.64 766.73,313.27"/>
    </edge>
    <edge id=":1922527882_5" function="internal">
        <lane id=":1922527882_5_0" index="0" disallow="tram rail_urban rail rail_electric rail_fast ship" speed="3.65" length="4.67" shape="775.96,323.60 775.05,322.48 774.91,321.60 775.53,320.95 776.91,320.55"/>
    </edge>
    <edge id=":1922527882_6" function="internal">
        <lane id=":1922527882_6_0" index="0" disallow="tram rail_urban rail rail_electric rail_fast ship" speed="7.75" length="10.96" shape="769.94,313.22 770.24,315.56 771.49,317.57 773.72,319.23 776.91,320.55"/>
    </edge>
    <edge id=":1922527882_7" function="internal">
        <lane id=":1922527882_7_0" index="0" disallow="tram rail_urban rail rail_electric rail_fast ship" speed="27.78" length="12.95" shape="769.94,313.22 769.79,316.64 769.84,319.68 769.98,322.72 770.12,326.15"/>
    </edge>
    <edge id=":1922527882_8" function="internal">
        <lane id=":1922527882_8_0" index="0" disallow="tram rail_urban rail rail_electric rail_fast ship" speed="3.66" length="2.46" shape="769.94,313.22 769.16,314.43 768.36,314.85 768.27,314.80"/>
    </edge>
    <edge id=":1922527882_11" function="internal">
        <lane id=":1922527882_11_0" index="0" disallow="tram rail_urban rail rail_electric rail_fast ship" speed="3.66" length="2.24" shape="768.27,314.80 767.55,314.46 766.73,313.27"/>
    </edge>
    <edge id=":1922527886_0" function="internal">
        <lane id=":1922527886_0_0" index="0" disallow="tram rail_urban rail rail_electric rail_fast ship" speed="17.25" length="7.13" shape="749.04,438.11 748.41,440.10 748.27,441.53 748.39,443.01 748.53,445.13"/>
    </edge>
    <edge id=":1922527886_1" function="internal">
        <lane id=":1922527886_1_0" index="0" disallow="tram rail_urban rail rail_electric rail_fast ship" speed="3.65" length="2.14" shape="749.04,438.11 747.86,438.94 747.17,439.01"/>
    </edge>
    <edge id=":1922527886_4" function="internal">
        <lane id=":1922527886_4_0" index="0" disallow="tram rail_urban rail rail_electric rail_fast ship" speed="3.65" length="2.54" shape="747.17,439.01 746.97,439.03 746.37,438.37 746.05,436.96"/>
    </edge>
    <edge id=":1922527886_2" function="internal">
        <lane id=":1922527886_2_0" index="0" disallow="tram rail_urban rail rail_electric rail_fast ship" speed="27.78" length="7.68" shape="744.86,444.49 745.43,442.32 745.46,440.73 745.48,439.14 746.05,436.96"/>
    </edge>
    <edge id=":1922527886_3" function="internal">
        <lane id=":1922527886_3_0" index="0" disallow="tram rail_urban rail rail_electric rail_fast ship" speed="5.19" length="4.09" shape="744.86,444.49 746.37,441.22 746.73,440.90"/>
    </edge>
    <edge id=":1922527886_5" function="internal">
        <lane id=":1922527886_5_0" index="0" disallow="tram rail_urban rail rail_electric rail_fast ship" speed="5.19" length="6.10" shape="746.73,440.90 747.48,440.24 748.20,441.54 748.53,445.13"/>
    </edge>
    <edge id=":1922527888_0" function="internal">
        <lane id=":1922527888_0_0" index="0" disallow="tram rail_urban rail rail_electric rail_fast ship" speed="3.65" length="4.67" shape="810.50,-0.50 811.64,-1.39 812.52,-1.52 813.16,-0.89 813.54,0.50"/>
    </edge>
    <edge id=":1922527913_0" function="internal">
        <lane id=":1922527913_0_0" index="0" disallow="tram rail_urban rail rail_electric rail_fast ship" speed="21.91" length="3.76" shape="709.43,459.55 708.55,458.87 707.91,458.44 707.23,458.10 706.19,457.69"/>
    </edge>
    <edge id=":1922527913_1" function="internal">
        <lane id=":1922527913_1_0" index="0" disallow="tram rail_urban rail rail_electric rail_fast ship" speed="5.08" length="3.98" shape="709.43,459.55 707.43,457.64 707.25,456.44"/>
    </edge>
    <edge id=":1922527913_4" function="internal">
        <lane id=":1922527913_4_0" index="0" disallow="tram rail_urban rail rail_electric rail_fast ship" speed="5.08" length="5.13" shape="707.25,456.44 708.87,455.94 712.30,456.15"/>
    </edge>
    <edge id=":1922527913_2" function="internal">
        <lane id=":1922527913_2_0" index="0" disallow="tram rail_urban rail rail_electric rail_fast ship" speed="27.78" length="5.22" shape="707.31,454.70 708.76,455.26 709.75,455.64 710.78,455.91 712.30,456.15"/>
    </edge>
    <edge id=":1922527913_3" function="internal">
        <lane id=":1922527913_3_0" index="0" disallow="tram rail_urban rail rail_electric rail_fast ship" speed="3.65" length="2.34" shape="707.31,454.70 708.16,455.87 708.25,456.76"/>
    </edge>
    <edge id=":1922527913_5" function="internal">
        <lane id=":1922527913_5_0" index="0" disallow="tram rail_urban rail rail_electric rail_fast ship" speed="3.65" length="2.34" shape="708.25,456.76 707.60,457.36 706.19,457.69"/>
    </edge>
    <edge id=":1922527918_0" function="internal">
        <lane id=":1922527918_0_0" index="0" disallow="tram rail_urban rail rail_electric rail_fast ship" speed="27.78" length="7.83" shape="772.21,263.70 772.51,265.98 773.15,267.50 773.72,269.01 773.79,271.28"/>
    </edge>
    <edge id=":1922527918_1" function="internal">
        <lane id=":1922527918_1_0" index="0" disallow="tram rail_urban rail rail_electric rail_fast ship" speed="4.93" length="3.36" shape="772.21,263.70 771.96,266.64 771.75,266.99"/>
    </edge>
    <edge id=":1922527918_4" function="internal">
        <lane id=":1922527918_4_0" index="0" disallow="tram rail_urban rail rail_electric rail_fast ship" speed="4.93" length="5.23" shape="771.75,266.99 771.26,267.78 770.10,267.12 768.48,264.64"/>
    </edge>
    <edge id=":1922527918_2" function="internal">
        <lane id=":1922527918_2_0" index="0" disallow="tram rail_urban rail rail_electric rail_fast ship" speed="10.61" length="6.83" shape="770.61,270.93 770.65,268.96 770.28,267.64 769.54,266.39 768.48,264.64"/>
    </edge>
    <edge id=":1922527918_3" function="internal">
        <lane id=":1922527918_3_0" index="0" disallow="tram rail_urban rail rail_electric rail_fast ship" speed="3.65" length="2.08" shape="770.61,270.93 771.54,269.82 772.14,269.60"/>
    </edge>
    <edge id=":1922527918_5" function="internal">
        <lane id=":1922527918_5_0" index="0" disallow="tram rail_urban rail rail_electric rail_fast ship" speed="3.65" length="2.59" shape="772.14,269.60 772.38,269.51 773.13,270.00 773.79,271.28"/>
    </edge>
    <edge id=":1922527919_0" function="internal">
        <lane id=":1922527919_0_0" index="0" disallow="tram rail_urban rail rail_electric rail_fast ship" speed="8.17" length="6.44" shape="758.42,235.97 759.31,235.06 760.02,233.79 760.53,232.16 760.85,230.18"/>
    </edge>
    <edge id=":1922527919_1" function="internal">
        <lane id=":1922527919_1_0" index="0" disallow="tram rail_urban rail rail_electric rail_fast ship" speed="11.92" length="6.81" shape="758.42,235.97 760.04,234.78 761.25,234.07 762.59,233.68 764.57,233.41"/>
    </edge>
    <edge id=":1922527939_0" function="internal">
        <lane id=":1922527939_0_0" index="0" disallow="tram rail_urban rail rail_electric rail_fast ship" speed="27.78" length="14.34" shape="690.99,452.02 677.38,447.52"/>
    </edge>
    <edge id=":1922527939_1" function="internal">
        <lane id=":1922527939_1_0" index="0" disallow="tram rail_urban rail rail_electric rail_fast ship" speed="9.31" length="5.22" shape="690.99,452.02 687.96,450.30 686.86,448.97"/>
    </edge>
    <edge id=":1922527939_2" function="internal">
        <lane id=":1922527939_2_0" index="0" disallow="tram rail_urban rail rail_electric rail_fast ship" speed="3.65" length="2.34" shape="690.99,452.02 690.15,450.85 690.05,449.96"/>
    </edge>
    <edge id=":1922527939_9" function="internal">
        <lane id=":1922527939_9_0" index="0" disallow="tram rail_urban rail rail_electric rail_fast ship" speed="9.31" length="9.45" shape="686.86,448.97 685.84,447.74 684.61,444.34 684.30,440.11"/>
    </edge>
    <edge id=":1922527939_10" function="internal">
        <lane id=":1922527939_10_0" index="0" disallow="tram rail_urban rail rail_electric rail_fast ship" speed="3.65" length="2.34" shape="690.05,449.96 690.71,449.35 692.11,449.02"/>
    </edge>
    <edge id=":1922527939_3" function="internal">
        <lane id=":1922527939_3_0" index="0" disallow="tram rail_urban rail rail_electric rail_fast ship" speed="8.02" length="10.67" shape="687.50,440.20 687.71,443.39 688.55,445.92 690.02,447.80 692.11,449.02"/>
    </edge>
    <edge id=":1922527939_4" function="internal">
        <lane id=":1922527939_4_0" index="0" disallow="tram rail_urban rail rail_electric rail_fast ship" speed="7.61" length="15.29" shape="687.50,440.20 686.75,444.50 684.82,447.15 681.69,448.16 677.38,447.52"/>
    </edge>
    <edge id=":1922527939_5" function="internal">
        <lane id=":1922527939_5_0" index="0" disallow="tram rail_urban rail rail_electric rail_fast ship" speed="3.65" length="4.67" shape="687.50,440.20 686.66,441.38 685.85,441.75 685.06,441.33 684.30,440.11"/>
    </edge>
    <edge id=":1922527939_6" function="internal">
        <lane id=":1922527939_6_0" index="0" disallow="tram rail_urban rail rail_electric rail_fast ship" speed="6.02" length="9.08" shape="678.29,444.45 680.85,444.83 682.71,444.23 683.86,442.66 684.30,440.11"/>
    </edge>
    <edge id=":1922527939_7" function="internal">
        <lane id=":1922527939_7_0" index="0" disallow="tram rail_urban rail rail_electric rail_fast ship" speed="27.78" length="14.56" shape="678.29,444.45 692.11,449.02"/>
    </edge>
    <edge id=":1922527939_8" function="internal">
        <lane id=":1922527939_8_0" index="0" disallow="tram rail_urban rail rail_electric rail_fast ship" speed="3.65" length="2.34" shape="678.29,444.45 679.21,445.56 679.37,446.44"/>
    </edge>
    <edge id=":1922527939_11" function="internal">
        <lane id=":1922527939_11_0" index="0" disallow="tram rail_urban rail rail_electric rail_fast ship" speed="3.65" length="2.34" shape="679.37,446.44 678.75,447.09 677.38,447.52"/>
    </edge>
    <edge id=":1922527950_0" function="internal">
        <lane id=":1922527950_0_0" index="0" disallow="tram rail_urban rail rail_electric rail_fast ship" speed="21.33" length="6.11" shape="778.29,474.62 776.51,474.37 775.28,474.41 774.04,474.63 772.25,474.96"/>
    </edge>
    <edge id=":1922527950_1" function="internal">
        <lane id=":1922527950_1_0" index="0" disallow="tram rail_urban rail rail_electric rail_fast ship" speed="3.65" length="2.17" shape="778.29,474.62 777.26,473.61 777.06,472.91"/>
    </edge>
    <edge id=":1922527950_4" function="internal">
        <lane id=":1922527950_4_0" index="0" disallow="tram rail_urban rail rail_electric rail_fast ship" speed="3.65" length="2.50" shape="777.06,472.91 777.01,472.75 777.55,472.04 778.87,471.47"/>
    </edge>
    <edge id=":1922527950_2" function="internal">
        <lane id=":1922527950_2_0" index="0" disallow="tram rail_urban rail rail_electric rail_fast ship" speed="27.78" length="6.48" shape="772.44,471.22 774.31,471.52 775.64,471.43 776.97,471.30 778.87,471.47"/>
    </edge>
    <edge id=":1922527950_3" function="internal">
        <lane id=":1922527950_3_0" index="0" disallow="tram rail_urban rail rail_electric rail_fast ship" speed="5.15" length="4.17" shape="772.44,471.22 775.76,472.33 776.25,472.78"/>
    </edge>
    <edge id=":1922527950_5" function="internal">
        <lane id=":1922527950_5_0" index="0" disallow="tram rail_urban rail rail_electric rail_fast ship" speed="5.15" length="5.77" shape="776.25,472.78 776.84,473.32 775.67,474.20 772.25,474.96"/>
    </edge>
    <edge id=":1922527951_0" function="internal">
        <lane id=":1922527951_0_0" index="0" disallow="tram rail_urban rail rail_electric rail_fast ship" speed="7.23" length="10.08" shape="769.37,361.63 768.89,359.28 767.59,357.48 765.48,356.23 762.55,355.54"/>
    </edge>
    <edge id=":1922527951_1" function="internal">
        <lane id=":1922527951_1_0" index="0" disallow="tram rail_urban rail rail_electric rail_fast ship" speed="27.78" length="14.45" shape="769.37,361.63 768.52,347.20"/>
    </edge>
    <edge id=":1922527951_2" function="internal">
        <lane id=":1922527951_2_0" index="0" disallow="tram rail_urban rail rail_electric rail_fast ship" speed="3.65" length="2.34" shape="769.37,361.63 770.07,360.36 770.83,359.89"/>
    </edge>
    <edge id=":1922527951_9" function="internal">
        <lane id=":1922527951_9_0" index="0" disallow="tram rail_urban rail rail_electric rail_fast ship" speed="3.65" length="2.34" shape="770.83,359.89 771.66,360.22 772.56,361.35"/>
    </edge>
    <edge id=":1922527951_3" function="internal">
        <lane id=":1922527951_3_0" index="0" disallow="tram rail_urban rail rail_electric rail_fast ship" speed="27.78" length="14.33" shape="771.71,347.04 772.56,361.35"/>
    </edge>
    <edge id=":1922527951_4" function="internal">
        <lane id=":1922527951_4_0" index="0" disallow="tram rail_urban rail rail_electric rail_fast ship" speed="7.72" length="5.91" shape="771.71,347.04 771.32,351.21 770.44,352.69"/>
    </edge>
    <edge id=":1922527951_5" function="internal">
        <lane id=":1922527951_5_0" index="0" disallow="tram rail_urban rail rail_electric rail_fast ship" speed="3.65" length="2.34" shape="771.71,347.04 770.97,348.28 770.19,348.72"/>
    </edge>
    <edge id=":1922527951_10" function="internal">
        <lane id=":1922527951_10_0" index="0" disallow="tram rail_urban rail rail_electric rail_fast ship" speed="7.72" length="8.99" shape="770.44,352.69 769.66,354.02 766.74,355.46 762.55,355.54"/>
    </edge>
    <edge id=":1922527951_11" function="internal">
        <lane id=":1922527951_11_0" index="0" disallow="tram rail_urban rail rail_electric rail_fast ship" speed="3.65" length="2.34" shape="770.19,348.72 769.37,348.36 768.52,347.20"/>
    </edge>
    <edge id=":1922527951_6" function="internal">
        <lane id=":1922527951_6_0" index="0" disallow="tram rail_urban rail rail_electric rail_fast ship" speed="6.16" length="9.05" shape="762.95,352.37 765.49,352.32 767.27,351.44 768.28,349.73 768.52,347.20"/>
    </edge>
    <edge id=":1922527951_7" function="internal">
        <lane id=":1922527951_7_0" index="0" disallow="tram rail_urban rail rail_electric rail_fast ship" speed="8.57" length="14.53" shape="762.95,352.37 767.08,353.37 770.05,355.20 771.88,357.86 772.56,361.35"/>
    </edge>
    <edge id=":1922527951_8" function="internal">
        <lane id=":1922527951_8_0" index="0" disallow="tram rail_urban rail rail_electric rail_fast ship" speed="3.65" length="4.67" shape="762.95,352.37 764.04,353.31 764.34,354.15 763.84,354.90 762.55,355.54"/>
    </edge>
    <edge id=":1922527967_0" function="internal">
        <lane id=":1922527967_0_0" index="0" disallow="tram rail_urban rail rail_electric rail_fast ship" speed="27.78" length="14.58" shape="857.03,489.89 842.69,487.26"/>
    </edge>
    <edge id=":1922527967_1" function="internal">
        <lane id=":1922527967_1_0" index="0" disallow="tram rail_urban rail rail_electric rail_fast ship" speed="7.77" length="6.12" shape="857.03,489.89 853.10,488.62 851.64,487.28"/>
    </edge>
    <edge id=":1922527967_2" function="internal">
        <lane id=":1922527967_2_0" index="0" disallow="tram rail_urban rail rail_electric rail_fast ship" speed="3.65" length="2.34" shape="857.03,489.89 855.98,488.90 855.72,488.05"/>
    </edge>
    <edge id=":1922527967_9" function="internal">
        <lane id=":1922527967_9_0" index="0" disallow="tram rail_urban rail rail_electric rail_fast ship" speed="7.77" length="8.65" shape="851.64,487.28 850.71,486.42 849.86,483.28 850.56,479.21"/>
    </edge>
    <edge id=":1922527967_10" function="internal">
        <lane id=":1922527967_10_0" index="0" disallow="tram rail_urban rail rail_electric rail_fast ship" speed="3.65" length="2.34" shape="855.72,488.05 856.25,487.33 857.57,486.74"/>
    </edge>
    <edge id=":1922527967_3" function="internal">
        <lane id=":1922527967_3_0" index="0" disallow="tram rail_urban rail rail_electric rail_fast ship" speed="6.22" length="9.05" shape="853.60,480.19 853.18,482.69 853.70,484.61 855.16,485.96 857.57,486.74"/>
    </edge>
    <edge id=":1922527967_4" function="internal">
        <lane id=":1922527967_4_0" index="0" disallow="tram rail_urban rail rail_electric rail_fast ship" speed="8.43" length="14.47" shape="853.60,480.19 851.87,483.89 849.48,486.30 846.42,487.42 842.69,487.26"/>
    </edge>
    <edge id=":1922527967_5" function="internal">
        <lane id=":1922527967_5_0" index="0" disallow="tram rail_urban rail rail_electric rail_fast ship" speed="3.65" length="4.67" shape="853.60,480.19 852.47,481.09 851.59,481.22 850.95,480.60 850.56,479.21"/>
    </edge>
    <edge id=":1922527967_6" function="internal">
        <lane id=":1922527967_6_0" index="0" disallow="tram rail_urban rail rail_electric rail_fast ship" speed="7.02" length="9.73" shape="843.31,484.12 845.76,484.21 847.78,483.42 849.38,481.75 850.56,479.21"/>
    </edge>
    <edge id=":1922527967_7" function="internal">
        <lane id=":1922527967_7_0" index="0" disallow="tram rail_urban rail rail_electric rail_fast ship" speed="27.78" length="14.50" shape="843.31,484.12 857.57,486.74"/>
    </edge>
    <edge id=":1922527967_8" function="internal">
        <lane id=":1922527967_8_0" index="0" disallow="tram rail_urban rail rail_electric rail_fast ship" speed="3.65" length="2.34" shape="843.31,484.12 844.33,485.14 844.57,486.00"/>
    </edge>
    <edge id=":1922527967_11" function="internal">
        <lane id=":1922527967_11_0" index="0" disallow="tram rail_urban rail rail_electric rail_fast ship" speed="3.65" length="2.34" shape="844.57,486.00 844.02,486.71 842.69,487.26"/>
    </edge>
    <edge id=":1922562467_0" function="internal">