<?xml version="1.0" encoding="UTF-8"?>

<!-- generated on Fri May  8 07:56:06 2020 by Eclipse SUMO duarouter Version 1.5.0
<configuration xmlns:xsi="http://www.w3.org/2001/XMLSchema-instance" xsi:noNamespaceSchemaLocation="http://sumo.dlr.de/xsd/duarouterConfiguration.xsd">

    <input>
        <net-file value="network.net.xml"/>
        <route-files value="trips.trips.xml"/>
    </input>

    <output>
        <output-file value="route.rou.xml"/>
        <alternatives-output value="route.rou.alt.xml"/>
    </output>

    <time>
        <begin value="0"/>
        <end value="50.0"/>
    </time>

    <report>
        <no-warnings value="true"/>
        <ignore-errors value="true"/>
        <no-step-log value="true"/>
    </report>

</configuration>
-->

<routes xmlns:xsi="http://www.w3.org/2001/XMLSchema-instance" xsi:noNamespaceSchemaLocation="http://sumo.dlr.de/xsd/routes_file.xsd">
    <vehicle id="0" depart="0.00">
        <route edges="271201751 271201746#5 367604399 -271200797#1 -271200797#0 706559354 181927486#3 181927500 -181922615#2 -181922615#1 -181922615#0 181922615#0"/>
    </vehicle>
    <vehicle id="1" depart="5.00">
        <route edges="271201751 271201746#5 271201746#6 271201746#0 271201746#1 271201746#2 271201746#3 271201749 -182227899#4 -182227899#3 -182227899#2 -182227899#1 -182227899#0 182227916 321051525#4 321051525#5 321051525#6"/>
    </vehicle>
    <vehicle id="2" depart="10.00">
        <route edges="-181919256#0 -182227899#3 -182227899#2 -182227899#1 -181918337#3 -181918337#2 -181918337#1"/>
    </vehicle>
    <vehicle id="3" depart="15.00">
        <route edges="181927479#0 -181927491 -182227909#2 -182227909#1 -182227909#0 182227914 321051525#2 321051525#3 321051525#4 321051525#5 321051525#6 321051531 321051532"/>
    </vehicle>
    <vehicle id="4" depart="20.00">
        <route edges="271201746#5 367604399 -271200797#1 -271200797#0 706559354 181927486#3 181927486#4 181927486#5 181927479#0 -181927491 182227909#3"/>
    </vehicle>
    <vehicle id="5" depart="25.00">
        <route edges="-181922615#2 -181922615#1 -181922615#0 -182227909#0 182227914 321051525#2 321051525#3 321051525#4 321051525#5 321051525#6 321051531"/>
    </vehicle>
    <vehicle id="6" depart="30.00">
        <route edges="181922615#1 181922615#2 271200799 181927486#5 181927479#0 -181927491 -182227909#2"/>
    </vehicle>
    <vehicle id="7" depart="35.00">
        <route edges="-321051532 182227887 321051525#8 321051525#9 321051525#10 321051525#0 321051525#1 321051525#2 44820875 182227899#0 -181918337#3 -181918337#2"/>
    </vehicle>
    <vehicle id="8" depart="40.00">
        <route edges="-271200797#0 271200797#0 271200797#1 367604398 271201746#0 271201746#1 271201746#2 271201746#3 271201749 -182227899#4 -182227899#3 -182227899#2 -182227899#1 -181918337#3 -181918337#2 181918337#2"/>
    </vehicle>
    <vehicle id="9" depart="45.00">
        <route edges="182218672#0 182218672#1 321051525#10 321051525#0 321051525#1 321051525#2 321051525#3 321051525#4 182227911"/>
    </vehicle>
</routes>
