 <configuration>
<input>
<net-file value="network.net.xml"/>
<route-files value="route.rou.xml"/>
</input>
<time>
<begin value="0"/>
<end value="100"/>
</time>
</configuration>