<?xml version="1.0" encoding="UTF-8"?>
<!-- generated on 2020-05-08 07:56:06.561576 by randomTrips.py v1_5_0+0000-3a3be608d2
  options: -n network.net.xml -e 50 -r route.rou.xml <doubleminus>fringe-factor 10 -p 5
-->
<routes xmlns:xsi="http://www.w3.org/2001/XMLSchema-instance" xsi:noNamespaceSchemaLocation="http://sumo.dlr.de/xsd/routes_file.xsd">
    <trip id="0" depart="0.00" from="271201751" to="181922615#0"/>
    <trip id="1" depart="5.00" from="271201751" to="321051525#6"/>
    <trip id="2" depart="10.00" from="-181919256#0" to="-181918337#1"/>
    <trip id="3" depart="15.00" from="181927479#0" to="321051532"/>
    <trip id="4" depart="20.00" from="271201746#5" to="182227909#3"/>
    <trip id="5" depart="25.00" from="-181922615#2" to="321051531"/>
    <trip id="6" depart="30.00" from="181922615#1" to="-182227909#2"/>
    <trip id="7" depart="35.00" from="-321051532" to="-181918337#2"/>
    <trip id="8" depart="40.00" from="-271200797#0" to="181918337#2"/>
    <trip id="9" depart="45.00" from="182218672#0" to="182227911"/>
</routes>
