<configuration>
<input>
<net-file value="net.net.xml"/>
<route-files value="routes.rou.xml"/>
</input>
<time>
<begin value="0"/>
<end value="2000"/>
</time>
</configuration>
