<routes>
<route id="route0" edges="1to2 2to3" />
<route id="route1" edges="2to3 3to4"/>
<route id="route2" edges="3to4 out"/>

<vType accel="1.0" decel="5.0" id="Car" length="2.0" maxSpeed="100.0" sigma="0.0" />
<vType accel="1.0" decel="5.0" id="Bus" length="12.0" maxSpeed="1.0" sigma="0.0" />

<vehicle depart="10" id="veh0" route="route0" type="Bus" />
<vehicle depart="10" id="veh3" route="route0" type="Bus" />
<vehicle depart="10" id="veh1" route="route1" type="Car" />

</routes>