<?xml version="1.0" encoding="UTF-8"?>

<!-- generated on 05/15/20 15:36:44 by Eclipse SUMO netedit Version 1.5.0
<configuration xmlns:xsi="http://www.w3.org/2001/XMLSchema-instance" xsi:noNamespaceSchemaLocation="http://sumo.dlr.de/xsd/netconvertConfiguration.xsd">

    <input>
        <sumo-net-file value="Carte_Villes.net.xml"/>
    </input>

    <output>
        <output-file value="C:\SUMO_APP\Documentation\15_05\Nouveau%20dossier\my_net.net.xml"/>
    </output>

    <processing>
        <geometry.min-radius.fix.railways value="false"/>
        <geometry.max-grade.fix value="false"/>
        <offset.disable-normalization value="true"/>
        <lefthand value="false"/>
    </processing>

    <junctions>
        <no-turnarounds value="true"/>
        <junctions.corner-detail value="5"/>
        <junctions.limit-turn-speed value="5.5"/>
        <rectangular-lane-cut value="false"/>
    </junctions>

    <pedestrian>
        <walkingareas value="false"/>
    </pedestrian>

    <report>
        <aggregate-warnings value="5"/>
    </report>

</configuration>
-->

<net version="1.3" junctionCornerDetail="5" limitTurnSpeed="5.50" xmlns:xsi="http://www.w3.org/2001/XMLSchema-instance" xsi:noNamespaceSchemaLocation="http://sumo.dlr.de/xsd/net_file.xsd">

    <location netOffset="375.00,125.00" convBoundary="0.00,0.00,750.00,250.00" origBoundary="-375.00,-125.00,375.00,125.00" projParameter="!"/>

    <type id="Type-Ariana-Tunis" priority="-1" numLanes="2" speed="120.00"/>
    <type id="Type-Bardo-Benarous" priority="-1" numLanes="2" speed="120.00"/>
    <type id="Type-Bardo-Tunis" priority="-1" numLanes="2" speed="120.00"/>
    <type id="Type-Benarous-Bardo" priority="-1" numLanes="2" speed="120.00"/>
    <type id="Type-Benarous-Marsa" priority="-1" numLanes="2" speed="120.00"/>
    <type id="Type-Benarous-Rades" priority="-1" numLanes="2" speed="120.00"/>
    <type id="Type-Marsa-Benarous" priority="-1" numLanes="2" speed="120.00"/>
    <type id="Type-Marsa-Tunis" priority="-1" numLanes="2" speed="120.00"/>
    <type id="Type-Rades-Benarous" priority="-1" numLanes="2" speed="120.00"/>
    <type id="Type-Tunis-Ariana" priority="-1" numLanes="2" speed="120.00"/>
    <type id="Type-Tunis-Bardo" priority="-1" numLanes="2" speed="120.00"/>
    <type id="Type-Tunis-Marsa" priority="-1" numLanes="2" speed="120.00"/>

    <edge id=":Ariana_0" function="internal">
        <lane id=":Ariana_0_0" index="0" speed="3.65" length="4.67" shape="0.00,126.60 -1.20,125.80 -1.60,125.00 -1.20,124.20 0.00,123.40"/>
    </edge>
    <edge id=":Bardo_0" function="internal">
        <lane id=":Bardo_0_0" index="0" speed="3.90" length="2.58" shape="376.13,7.92 375.57,7.50 375.00,7.35 374.43,7.50 373.87,7.92"/>
    </edge>
    <edge id=":Bardo_1" function="internal">
        <lane id=":Bardo_1_0" index="0" speed="6.08" length="7.74" shape="378.39,5.66 376.70,4.38 375.00,3.96 373.30,4.38 371.61,5.66"/>
    </edge>
    <edge id=":Bardo_2" function="internal">
        <lane id=":Bardo_2_0" index="0" speed="8.96" length="18.06" shape="367.08,1.13 371.04,-1.84 375.00,-2.83 378.96,-1.84 382.92,1.13"/>
    </edge>
    <edge id=":Bardo_3" function="internal">
        <lane id=":Bardo_3_0" index="0" speed="7.66" length="12.90" shape="369.34,3.39 372.17,1.27 375.00,0.57 377.83,1.27 380.66,3.39"/>
    </edge>
    <edge id=":Benarous_0" function="internal">
        <lane id=":Benarous_0_0" index="0" speed="11.62" length="12.44" shape="506.65,129.80 504.24,130.17 501.67,131.29 498.93,133.15 496.04,135.75"/>
    </edge>
    <edge id=":Benarous_1" function="internal">
        <lane id=":Benarous_1_0" index="0" speed="12.70" length="14.95" shape="506.65,126.60 503.60,127.03 500.44,128.32 497.16,130.47 493.78,133.49"/>
    </edge>
    <edge id=":Benarous_2" function="internal">
        <lane id=":Benarous_2_0" index="0" speed="13.70" length="17.45" shape="506.65,126.60 502.96,126.11 499.21,124.64 495.39,122.20 491.51,118.78"/>
    </edge>
    <edge id=":Benarous_3" function="internal">
        <lane id=":Benarous_3_0" index="0" speed="3.65" length="2.34" shape="506.65,126.60 505.45,125.80 505.05,125.00"/>
    </edge>
    <edge id=":Benarous_11" function="internal">
        <lane id=":Benarous_11_0" index="0" speed="3.65" length="2.34" shape="505.05,125.00 505.45,124.20 506.65,123.40"/>
    </edge>
    <edge id=":Benarous_4" function="internal">
        <lane id=":Benarous_4_0" index="0" speed="11.62" length="12.44" shape="496.04,114.25 498.93,116.85 501.67,118.71 504.24,119.83 506.65,120.20"/>
    </edge>
    <edge id=":Benarous_5" function="internal">
        <lane id=":Benarous_5_0" index="0" speed="9.26" length="5.97" shape="493.78,116.51 496.96,120.76 497.12,121.41"/>
    </edge>
    <edge id=":Benarous_6" function="internal">
        <lane id=":Benarous_6_0" index="0" speed="3.65" length="2.22" shape="493.78,116.51 494.06,117.93 493.81,118.67"/>
    </edge>
    <edge id=":Benarous_12" function="internal">
        <lane id=":Benarous_12_0" index="0" speed="9.26" length="13.38" shape="497.12,121.41 498.02,125.00 496.96,129.24 493.78,133.49"/>
    </edge>
    <edge id=":Benarous_13" function="internal">
        <lane id=":Benarous_13_0" index="0" speed="3.65" length="2.45" shape="493.81,118.67 493.78,118.78 492.93,119.06 491.51,118.78"/>
    </edge>
    <edge id=":Benarous_7" function="internal">
        <lane id=":Benarous_7_0" index="0" speed="6.51" length="9.03" shape="489.25,128.96 490.74,126.98 491.23,125.00 490.74,123.02 489.25,121.04"/>
    </edge>
    <edge id=":Benarous_8" function="internal">
        <lane id=":Benarous_8_0" index="0" speed="14.63" length="19.96" shape="489.25,128.96 493.62,125.13 497.98,122.39 502.32,120.75 506.65,120.20"/>
    </edge>
    <edge id=":Benarous_9" function="internal">
        <lane id=":Benarous_9_0" index="0" speed="13.70" length="17.45" shape="491.51,131.22 495.39,127.80 499.21,125.36 502.96,123.89 506.65,123.40"/>
    </edge>
    <edge id=":Benarous_10" function="internal">
        <lane id=":Benarous_10_0" index="0" speed="3.65" length="4.67" shape="491.51,131.22 492.93,130.94 493.78,131.22 494.06,132.07 493.78,133.49"/>
    </edge>
    <edge id=":Marsa_0" function="internal">
        <lane id=":Marsa_0_0" index="0" speed="8.96" length="18.06" shape="382.92,248.87 378.96,251.84 375.00,252.83 371.04,251.84 367.08,248.87"/>
    </edge>
    <edge id=":Marsa_1" function="internal">
        <lane id=":Marsa_1_0" index="0" speed="7.66" length="12.90" shape="380.66,246.61 377.83,248.73 375.00,249.43 372.17,248.73 369.34,246.61"/>
    </edge>
    <edge id=":Marsa_2" function="internal">
        <lane id=":Marsa_2_0" index="0" speed="3.90" length="2.58" shape="373.87,242.08 374.43,242.50 375.00,242.65 375.57,242.50 376.13,242.08"/>
    </edge>
    <edge id=":Marsa_3" function="internal">
        <lane id=":Marsa_3_0" index="0" speed="6.08" length="7.74" shape="371.61,244.34 373.30,245.62 375.00,246.04 376.70,245.62 378.39,244.34"/>
    </edge>
    <edge id=":Rades_0" function="internal">
        <lane id=":Rades_0_0" index="0" speed="3.65" length="4.67" shape="750.00,123.40 751.20,124.20 751.60,125.00 751.20,125.80 750.00,126.60"/>
    </edge>
    <edge id=":Tunis_0" function="internal">
        <lane id=":Tunis_0_0" index="0" speed="11.62" length="12.44" shape="253.96,135.75 251.07,133.15 248.33,131.29 245.76,130.17 243.35,129.80"/>
    </edge>
    <edge id=":Tunis_1" function="internal">
        <lane id=":Tunis_1_0" index="0" speed="9.26" length="5.97" shape="256.22,133.49 253.04,129.24 252.88,128.59"/>
    </edge>
    <edge id=":Tunis_2" function="internal">
        <lane id=":Tunis_2_0" index="0" speed="3.65" length="2.22" shape="256.22,133.49 255.94,132.07 256.19,131.33"/>
    </edge>
    <edge id=":Tunis_11" function="internal">
        <lane id=":Tunis_11_0" index="0" speed="9.26" length="13.38" shape="252.88,128.59 251.98,125.00 253.04,120.76 256.22,116.51"/>
    </edge>
    <edge id=":Tunis_12" function="internal">
        <lane id=":Tunis_12_0" index="0" speed="3.65" length="2.45" shape="256.19,131.33 256.22,131.22 257.07,130.94 258.49,131.22"/>
    </edge>
    <edge id=":Tunis_3" function="internal">
        <lane id=":Tunis_3_0" index="0" speed="6.51" length="9.03" shape="260.75,121.04 259.26,123.02 258.77,125.00 259.26,126.98 260.75,128.96"/>
    </edge>
    <edge id=":Tunis_4" function="internal">
        <lane id=":Tunis_4_0" index="0" speed="14.63" length="19.96" shape="260.75,121.04 256.38,124.87 252.02,127.61 247.68,129.25 243.35,129.80"/>
    </edge>
    <edge id=":Tunis_5" function="internal">
        <lane id=":Tunis_5_0" index="0" speed="13.70" length="17.45" shape="258.49,118.78 254.61,122.20 250.79,124.64 247.04,126.11 243.35,126.60"/>
    </edge>
    <edge id=":Tunis_6" function="internal">
        <lane id=":Tunis_6_0" index="0" speed="3.65" length="4.67" shape="258.49,118.78 257.07,119.06 256.22,118.78 255.94,117.93 256.22,116.51"/>
    </edge>
    <edge id=":Tunis_7" function="internal">
        <lane id=":Tunis_7_0" index="0" speed="11.62" length="12.44" shape="243.35,120.20 245.76,119.83 248.33,118.71 251.07,116.85 253.96,114.25"/>
    </edge>
    <edge id=":Tunis_8" function="internal">
        <lane id=":Tunis_8_0" index="0" speed="12.70" length="14.95" shape="243.35,123.40 246.40,122.97 249.56,121.68 252.84,119.53 256.22,116.51"/>
    </edge>
    <edge id=":Tunis_9" function="internal">
        <lane id=":Tunis_9_0" index="0" speed="13.70" length="17.45" shape="243.35,123.40 247.04,123.89 250.79,125.36 254.61,127.80 258.49,131.22"/>
    </edge>
    <edge id=":Tunis_10" function="internal">
        <lane id=":Tunis_10_0" index="0" speed="3.65" length="2.34" shape="243.35,123.40 244.55,124.20 244.95,125.00"/>
    </edge>
    <edge id=":Tunis_13" function="internal">
        <lane id=":Tunis_13_0" index="0" speed="3.65" length="2.34" shape="244.95,125.00 244.55,125.80 243.35,126.60"/>
    </edge>

    <edge id="Ariana-Tunis" from="Ariana" to="Tunis" priority="-1" type="Type-Ariana-Tunis">
        <lane id="Ariana-Tunis_0" index="0" speed="120.00" length="243.35" shape="0.00,120.20 243.35,120.20"/>
        <lane id="Ariana-Tunis_1" index="1" speed="120.00" length="243.35" shape="0.00,123.40 243.35,123.40"/>
    </edge>
    <edge id="Bardo-Benarous" from="Bardo" to="Benarous" priority="-1" type="Type-Bardo-Benarous">
        <lane id="Bardo-Benarous_0" index="0" speed="120.00" length="159.98" shape="382.92,1.13 496.04,114.25"/>
        <lane id="Bardo-Benarous_1" index="1" speed="120.00" length="159.98" shape="380.66,3.39 493.78,116.51"/>
    </edge>
    <edge id="Bardo-Tunis" from="Bardo" to="Tunis" priority="-1" type="Type-Bardo-Tunis">
        <lane id="Bardo-Tunis_0" index="0" speed="120.00" length="159.98" shape="373.87,7.92 260.75,121.04"/>
        <lane id="Bardo-Tunis_1" index="1" speed="120.00" length="159.98" shape="371.61,5.66 258.49,118.78"/>
    </edge>
    <edge id="Benarous-Bardo" from="Benarous" to="Bardo" priority="-1" type="Type-Benarous-Bardo">
        <lane id="Benarous-Bardo_0" index="0" speed="120.00" length="159.98" shape="489.25,121.04 376.13,7.92"/>
        <lane id="Benarous-Bardo_1" index="1" speed="120.00" length="159.98" shape="491.51,118.78 378.39,5.66"/>
    </edge>
    <edge id="Benarous-Marsa" from="Benarous" to="Marsa" priority="-1" type="Type-Benarous-Marsa">
        <lane id="Benarous-Marsa_0" index="0" speed="120.00" length="159.98" shape="496.04,135.75 382.92,248.87"/>
        <lane id="Benarous-Marsa_1" index="1" speed="120.00" length="159.98" shape="493.78,133.49 380.66,246.61"/>
    </edge>
    <edge id="Benarous-Rades" from="Benarous" to="Rades" priority="-1" type="Type-Benarous-Rades">
        <lane id="Benarous-Rades_0" index="0" speed="120.00" length="243.35" shape="506.65,120.20 750.00,120.20"/>
        <lane id="Benarous-Rades_1" index="1" speed="120.00" length="243.35" shape="506.65,123.40 750.00,123.40"/>
    </edge>
    <edge id="Marsa-Benarous" from="Marsa" to="Benarous" priority="-1" type="Type-Marsa-Benarous">
        <lane id="Marsa-Benarous_0" index="0" speed="120.00" length="159.98" shape="376.13,242.08 489.25,128.96"/>
        <lane id="Marsa-Benarous_1" index="1" speed="120.00" length="159.98" shape="378.39,244.34 491.51,131.22"/>
    </edge>
    <edge id="Marsa-Tunis" from="Marsa" to="Tunis" priority="-1" type="Type-Marsa-Tunis">
        <lane id="Marsa-Tunis_0" index="0" speed="120.00" length="159.98" shape="367.08,248.87 253.96,135.75"/>
        <lane id="Marsa-Tunis_1" index="1" speed="120.00" length="159.98" shape="369.34,246.61 256.22,133.49"/>
    </edge>
    <edge id="Rades-Benarous" from="Rades" to="Benarous" priority="-1" type="Type-Rades-Benarous">
        <lane id="Rades-Benarous_0" index="0" speed="120.00" length="243.35" shape="750.00,129.80 506.65,129.80"/>
        <lane id="Rades-Benarous_1" index="1" speed="120.00" length="243.35" shape="750.00,126.60 506.65,126.60"/>
    </edge>
    <edge id="Tunis-Ariana" from="Tunis" to="Ariana" priority="-1" type="Type-Tunis-Ariana">
        <lane id="Tunis-Ariana_0" index="0" speed="120.00" length="243.35" shape="243.35,129.80 0.00,129.80"/>
        <lane id="Tunis-Ariana_1" index="1" speed="120.00" length="243.35" shape="243.35,126.60 0.00,126.60"/>
    </edge>
    <edge id="Tunis-Bardo" from="Tunis" to="Bardo" priority="-1" type="Type-Tunis-Bardo">
        <lane id="Tunis-Bardo_0" index="0" speed="120.00" length="159.98" shape="253.96,114.25 367.08,1.13"/>
        <lane id="Tunis-Bardo_1" index="1" speed="120.00" length="159.98" shape="256.22,116.51 369.34,3.39"/>
    </edge>
    <edge id="Tunis-Marsa" from="Tunis" to="Marsa" priority="-1" type="Type-Tunis-Marsa">
        <lane id="Tunis-Marsa_0" index="0" speed="120.00" length="159.98" shape="260.75,128.96 373.87,242.08"/>
        <lane id="Tunis-Marsa_1" index="1" speed="120.00" length="159.98" shape="258.49,131.22 371.61,244.34"/>
    </edge>

    <junction id="Ariana" type="priority" x="0.00" y="125.00" incLanes="Tunis-Ariana_0 Tunis-Ariana_1" intLanes=":Ariana_0_0" shape="0.00,125.00 0.00,131.40 0.00,125.00">
        <request index="0" response="0" foes="0" cont="0"/>
    </junction>
    <junction id="Bardo" type="priority" x="375.00" y="0.00" incLanes="Benarous-Bardo_0 Benarous-Bardo_1 Tunis-Bardo_0 Tunis-Bardo_1" intLanes=":Bardo_0_0 :Bardo_1_0 :Bardo_2_0 :Bardo_3_0" shape="375.00,9.05 384.05,-0.00 381.03,-2.51 378.02,-4.02 375.00,-4.53 371.98,-4.02 368.97,-2.51 365.95,0.00">
        <request index="0" response="0000" foes="0000" cont="0"/>
        <request index="1" response="0000" foes="0000" cont="0"/>
        <request index="2" response="0000" foes="0000" cont="0"/>
        <request index="3" response="0000" foes="0000" cont="0"/>
    </junction>
    <junction id="Benarous" type="priority" x="500.00" y="125.00" incLanes="Rades-Benarous_0 Rades-Benarous_1 Bardo-Benarous_0 Bardo-Benarous_1 Marsa-Benarous_0 Marsa-Benarous_1" intLanes=":Benarous_0_0 :Benarous_1_0 :Benarous_2_0 :Benarous_11_0 :Benarous_4_0 :Benarous_12_0 :Benarous_13_0 :Benarous_7_0 :Benarous_8_0 :Benarous_9_0 :Benarous_10_0" shape="506.65,131.40 506.65,118.60 503.82,117.99 502.28,117.23 500.66,116.16 498.96,114.79 497.17,113.12 488.12,122.17 489.38,124.06 489.53,125.00 489.38,125.94 488.91,126.89 488.12,127.83 497.17,136.88 498.96,135.21 500.66,133.84 502.28,132.77 503.82,132.01 505.28,131.55">
        <request index="0"  response="00000000000" foes="10000100000" cont="0"/>
        <request index="1"  response="00000000000" foes="10000100000" cont="0"/>
        <request index="2"  response="00000000000" foes="01101100000" cont="0"/>
        <request index="3"  response="01100000000" foes="01100000000" cont="1"/>
        <request index="4"  response="00000000000" foes="01100000000" cont="0"/>
        <request index="5"  response="00000000111" foes="11100000111" cont="1"/>
        <request index="6"  response="00000000100" foes="00000000100" cont="1"/>
        <request index="7"  response="00000000000" foes="00000000000" cont="0"/>
        <request index="8"  response="00000110100" foes="00000111100" cont="0"/>
        <request index="9"  response="00000110100" foes="00000111100" cont="0"/>
        <request index="10" response="00000100011" foes="00000100011" cont="0"/>
    </junction>
    <junction id="Marsa" type="priority" x="375.00" y="250.00" incLanes="Benarous-Marsa_0 Benarous-Marsa_1 Tunis-Marsa_0 Tunis-Marsa_1" intLanes=":Marsa_0_0 :Marsa_1_0 :Marsa_2_0 :Marsa_3_0" shape="384.05,250.00 375.00,240.95 365.95,250.00 368.97,252.51 371.98,254.02 375.00,254.53 378.02,254.02 381.03,252.51">
        <request index="0" response="0000" foes="0000" cont="0"/>
        <request index="1" response="0000" foes="0000" cont="0"/>
        <request index="2" response="0000" foes="0000" cont="0"/>
        <request index="3" response="0000" foes="0000" cont="0"/>
    </junction>
    <junction id="Rades" type="priority" x="750.00" y="125.00" incLanes="Benarous-Rades_0 Benarous-Rades_1" intLanes=":Rades_0_0" shape="750.00,125.00 750.00,118.60 750.00,125.00">
        <request index="0" response="0" foes="0" cont="0"/>
    </junction>
    <junction id="Tunis" type="priority" x="250.00" y="125.00" incLanes="Marsa-Tunis_0 Marsa-Tunis_1 Bardo-Tunis_0 Bardo-Tunis_1 Ariana-Tunis_0 Ariana-Tunis_1" intLanes=":Tunis_0_0 :Tunis_11_0 :Tunis_12_0 :Tunis_3_0 :Tunis_4_0 :Tunis_5_0 :Tunis_6_0 :Tunis_7_0 :Tunis_8_0 :Tunis_9_0 :Tunis_13_0" shape="252.83,136.88 261.88,127.83 260.62,125.94 260.47,125.00 260.62,124.06 261.09,123.11 261.88,122.17 252.83,113.12 251.04,114.79 249.34,116.16 247.72,117.23 246.18,117.99 244.72,118.45 243.35,118.60 243.35,131.40 246.18,132.01 247.72,132.77 249.34,133.84 251.04,135.21">
        <request index="0"  response="00000000000" foes="00000110000" cont="0"/>
        <request index="1"  response="01110000000" foes="01111110000" cont="1"/>
        <request index="2"  response="01000000000" foes="01000000000" cont="1"/>
        <request index="3"  response="00000000000" foes="00000000000" cont="0"/>
        <request index="4"  response="01000000011" foes="11000000011" cont="0"/>
        <request index="5"  response="01000000011" foes="11000000011" cont="0"/>
        <request index="6"  response="00110000010" foes="00110000010" cont="0"/>
        <request index="7"  response="00000000000" foes="00001000010" cont="0"/>
        <request index="8"  response="00000000000" foes="00001000010" cont="0"/>
        <request index="9"  response="00000000000" foes="00000110110" cont="0"/>
        <request index="10" response="00000110000" foes="00000110000" cont="1"/>
    </junction>

    <junction id=":Benarous_11_0" type="internal" x="505.05" y="125.00" incLanes=":Benarous_3_0 Bardo-Benarous_0 Marsa-Benarous_0 Marsa-Benarous_1" intLanes=":Benarous_4_0 :Benarous_8_0 :Benarous_9_0"/>
    <junction id=":Benarous_12_0" type="internal" x="497.12" y="121.41" incLanes=":Benarous_5_0 Rades-Benarous_0 Rades-Benarous_1" intLanes=":Benarous_0_0 :Benarous_1_0 :Benarous_2_0 :Benarous_8_0 :Benarous_9_0 :Benarous_10_0"/>
    <junction id=":Benarous_13_0" type="internal" x="493.81" y="118.67" incLanes=":Benarous_6_0 Marsa-Benarous_0 Rades-Benarous_1" intLanes=":Benarous_2_0 :Benarous_7_0"/>
    <junction id=":Tunis_11_0" type="internal" x="252.88" y="128.59" incLanes=":Tunis_1_0 Ariana-Tunis_0 Ariana-Tunis_1" intLanes=":Tunis_4_0 :Tunis_5_0 :Tunis_6_0 :Tunis_7_0 :Tunis_8_0 :Tunis_9_0"/>
    <junction id=":Tunis_12_0" type="internal" x="256.19" y="131.33" incLanes=":Tunis_2_0 Ariana-Tunis_1 Bardo-Tunis_0" intLanes=":Tunis_3_0 :Tunis_9_0"/>
    <junction id=":Tunis_13_0" type="internal" x="244.95" y="125.00" incLanes=":Tunis_10_0 Bardo-Tunis_0 Bardo-Tunis_1 Marsa-Tunis_0" intLanes=":Tunis_0_0 :Tunis_4_0 :Tunis_5_0"/>

    <connection from="Ariana-Tunis" to="Tunis-Bardo" fromLane="0" toLane="0" via=":Tunis_7_0" dir="r" state="M"/>
    <connection from="Ariana-Tunis" to="Tunis-Bardo" fromLane="1" toLane="1" via=":Tunis_8_0" dir="r" state="M"/>
    <connection from="Ariana-Tunis" to="Tunis-Marsa" fromLane="1" toLane="1" via=":Tunis_9_0" dir="l" state="M"/>
    <connection from="Ariana-Tunis" to="Tunis-Ariana" fromLane="1" toLane="1" via=":Tunis_10_0" dir="t" state="m"/>
    <connection from="Bardo-Benarous" to="Benarous-Rades" fromLane="0" toLane="0" via=":Benarous_4_0" dir="r" state="M"/>
    <connection from="Bardo-Benarous" to="Benarous-Marsa" fromLane="1" toLane="1" via=":Benarous_5_0" dir="l" state="m"/>
    <connection from="Bardo-Benarous" to="Benarous-Bardo" fromLane="1" toLane="1" via=":Benarous_6_0" dir="t" state="m"/>
    <connection from="Bardo-Tunis" to="Tunis-Marsa" fromLane="0" toLane="0" via=":Tunis_3_0" dir="r" state="M"/>
    <connection from="Bardo-Tunis" to="Tunis-Ariana" fromLane="0" toLane="0" via=":Tunis_4_0" dir="l" state="m"/>
    <connection from="Bardo-Tunis" to="Tunis-Ariana" fromLane="1" toLane="1" via=":Tunis_5_0" dir="l" state="m"/>
    <connection from="Bardo-Tunis" to="Tunis-Bardo" fromLane="1" toLane="1" via=":Tunis_6_0" dir="t" state="m"/>
    <connection from="Benarous-Bardo" to="Bardo-Tunis" fromLane="0" toLane="0" via=":Bardo_0_0" dir="r" state="M"/>
    <connection from="Benarous-Bardo" to="Bardo-Tunis" fromLane="1" toLane="1" via=":Bardo_1_0" dir="r" state="M"/>
    <connection from="Benarous-Marsa" to="Marsa-Tunis" fromLane="0" toLane="0" via=":Marsa_0_0" dir="l" state="M"/>
    <connection from="Benarous-Marsa" to="Marsa-Tunis" fromLane="1" toLane="1" via=":Marsa_1_0" dir="l" state="M"/>
    <connection from="Benarous-Rades" to="Rades-Benarous" fromLane="1" toLane="1" via=":Rades_0_0" dir="t" state="M"/>
    <connection from="Marsa-Benarous" to="Benarous-Bardo" fromLane="0" toLane="0" via=":Benarous_7_0" dir="r" state="M"/>
    <connection from="Marsa-Benarous" to="Benarous-Rades" fromLane="0" toLane="0" via=":Benarous_8_0" dir="l" state="m"/>
    <connection from="Marsa-Benarous" to="Benarous-Rades" fromLane="1" toLane="1" via=":Benarous_9_0" dir="l" state="m"/>
    <connection from="Marsa-Benarous" to="Benarous-Marsa" fromLane="1" toLane="1" via=":Benarous_10_0" dir="t" state="m"/>
    <connection from="Marsa-Tunis" to="Tunis-Ariana" fromLane="0" toLane="0" via=":Tunis_0_0" dir="r" state="M"/>
    <connection from="Marsa-Tunis" to="Tunis-Bardo" fromLane="1" toLane="1" via=":Tunis_1_0" dir="l" state="m"/>
    <connection from="Marsa-Tunis" to="Tunis-Marsa" fromLane="1" toLane="1" via=":Tunis_2_0" dir="t" state="m"/>
    <connection from="Rades-Benarous" to="Benarous-Marsa" fromLane="0" toLane="0" via=":Benarous_0_0" dir="r" state="M"/>
    <connection from="Rades-Benarous" to="Benarous-Marsa" fromLane="1" toLane="1" via=":Benarous_1_0" dir="r" state="M"/>
    <connection from="Rades-Benarous" to="Benarous-Bardo" fromLane="1" toLane="1" via=":Benarous_2_0" dir="l" state="M"/>
    <connection from="Rades-Benarous" to="Benarous-Rades" fromLane="1" toLane="1" via=":Benarous_3_0" dir="t" state="m"/>
    <connection from="Tunis-Ariana" to="Ariana-Tunis" fromLane="1" toLane="1" via=":Ariana_0_0" dir="t" state="M"/>
    <connection from="Tunis-Bardo" to="Bardo-Benarous" fromLane="0" toLane="0" via=":Bardo_2_0" dir="l" state="M"/>
    <connection from="Tunis-Bardo" to="Bardo-Benarous" fromLane="1" toLane="1" via=":Bardo_3_0" dir="l" state="M"/>
    <connection from="Tunis-Marsa" to="Marsa-Benarous" fromLane="0" toLane="0" via=":Marsa_2_0" dir="r" state="M"/>
    <connection from="Tunis-Marsa" to="Marsa-Benarous" fromLane="1" toLane="1" via=":Marsa_3_0" dir="r" state="M"/>

    <connection from=":Ariana_0" to="Ariana-Tunis" fromLane="0" toLane="1" dir="t" state="M"/>
    <connection from=":Bardo_0" to="Bardo-Tunis" fromLane="0" toLane="0" dir="r" state="M"/>
    <connection from=":Bardo_1" to="Bardo-Tunis" fromLane="0" toLane="1" dir="r" state="M"/>
    <connection from=":Bardo_2" to="Bardo-Benarous" fromLane="0" toLane="0" dir="l" state="M"/>
    <connection from=":Bardo_3" to="Bardo-Benarous" fromLane="0" toLane="1" dir="l" state="M"/>
    <connection from=":Benarous_0" to="Benarous-Marsa" fromLane="0" toLane="0" dir="r" state="M"/>
    <connection from=":Benarous_1" to="Benarous-Marsa" fromLane="0" toLane="1" dir="r" state="M"/>
    <connection from=":Benarous_2" to="Benarous-Bardo" fromLane="0" toLane="1" dir="l" state="M"/>
    <connection from=":Benarous_3" to="Benarous-Rades" fromLane="0" toLane="1" via=":Benarous_11_0" dir="t" state="m"/>
    <connection from=":Benarous_11" to="Benarous-Rades" fromLane="0" toLane="1" dir="t" state="M"/>
    <connection from=":Benarous_4" to="Benarous-Rades" fromLane="0" toLane="0" dir="r" state="M"/>
    <connection from=":Benarous_5" to="Benarous-Marsa" fromLane="0" toLane="1" via=":Benarous_12_0" dir="l" state="m"/>
    <connection from=":Benarous_12" to="Benarous-Marsa" fromLane="0" toLane="1" dir="l" state="M"/>
    <connection from=":Benarous_6" to="Benarous-Bardo" fromLane="0" toLane="1" via=":Benarous_13_0" dir="t" state="m"/>
    <connection from=":Benarous_13" to="Benarous-Bardo" fromLane="0" toLane="1" dir="t" state="M"/>
    <connection from=":Benarous_7" to="Benarous-Bardo" fromLane="0" toLane="0" dir="r" state="M"/>
    <connection from=":Benarous_8" to="Benarous-Rades" fromLane="0" toLane="0" dir="l" state="M"/>
    <connection from=":Benarous_9" to="Benarous-Rades" fromLane="0" toLane="1" dir="l" state="M"/>
    <connection from=":Benarous_10" to="Benarous-Marsa" fromLane="0" toLane="1" dir="t" state="M"/>
    <connection from=":Marsa_0" to="Marsa-Tunis" fromLane="0" toLane="0" dir="l" state="M"/>
    <connection from=":Marsa_1" to="Marsa-Tunis" fromLane="0" toLane="1" dir="l" state="M"/>
    <connection from=":Marsa_2" to="Marsa-Benarous" fromLane="0" toLane="0" dir="r" state="M"/>
    <connection from=":Marsa_3" to="Marsa-Benarous" fromLane="0" toLane="1" dir="r" state="M"/>
    <connection from=":Rades_0" to="Rades-Benarous" fromLane="0" toLane="1" dir="t" state="M"/>
    <connection from=":Tunis_0" to="Tunis-Ariana" fromLane="0" toLane="0" dir="r" state="M"/>
    <connection from=":Tunis_1" to="Tunis-Bardo" fromLane="0" toLane="1" via=":Tunis_11_0" dir="l" state="m"/>
    <connection from=":Tunis_11" to="Tunis-Bardo" fromLane="0" toLane="1" dir="l" state="M"/>
    <connection from=":Tunis_2" to="Tunis-Marsa" fromLane="0" toLane="1" via=":Tunis_12_0" dir="t" state="m"/>
    <connection from=":Tunis_12" to="Tunis-Marsa" fromLane="0" toLane="1" dir="t" state="M"/>
    <connection from=":Tunis_3" to="Tunis-Marsa" fromLane="0" toLane="0" dir="r" state="M"/>
    <connection from=":Tunis_4" to="Tunis-Ariana" fromLane="0" toLane="0" dir="l" state="M"/>
    <connection from=":Tunis_5" to="Tunis-Ariana" fromLane="0" toLane="1" dir="l" state="M"/>
    <connection from=":Tunis_6" to="Tunis-Bardo" fromLane="0" toLane="1" dir="t" state="M"/>
    <connection from=":Tunis_7" to="Tunis-Bardo" fromLane="0" toLane="0" dir="r" state="M"/>
    <connection from=":Tunis_8" to="Tunis-Bardo" fromLane="0" toLane="1" dir="r" state="M"/>
    <connection from=":Tunis_9" to="Tunis-Marsa" fromLane="0" toLane="1" dir="l" state="M"/>
    <connection from=":Tunis_10" to="Tunis-Ariana" fromLane="0" toLane="1" via=":Tunis_13_0" dir="t" state="m"/>
    <connection from=":Tunis_13" to="Tunis-Ariana" fromLane="0" toLane="1" dir="t" state="M"/>

</net>
