<nodes>
<node id="Ariana" x = "-100" y="0"/>
<node id="Tunis" x = "0" y="0"/>
<node id="Marsa" x = "100" y="0"/>
</nodes>