<routes>
   <vType id="car" type="passenger" length="5" accel="3.5" decel="2.2" sigma="1.0"/>
   <flow id="carflow" type="car" beg="0" end="3000" number="5" from="gneJ4" to="gneJ5"/>
</routes>