<?xml version="1.0" encoding="UTF-8"?>

<!-- generated on 01/26/20 15:26:41 by Eclipse SUMO netedit Version 1.4.0
<configuration xmlns:xsi="http://www.w3.org/2001/XMLSchema-instance" xsi:noNamespaceSchemaLocation="http://sumo.dlr.de/xsd/netconvertConfiguration.xsd">

    <output>
        <output-file value="C:\SUMO_APP\TUTOS\Driving_in_Circles\tst\tst.net.xml"/>
    </output>

    <processing>
        <offset.disable-normalization value="true"/>
    </processing>

    <junctions>
        <no-turnarounds value="true"/>
    </junctions>

    <report>
        <aggregate-warnings value="5"/>
    </report>

</configuration>
-->

<net version="1.3" junctionCornerDetail="5" limitTurnSpeed="5.50" xmlns:xsi="http://www.w3.org/2001/XMLSchema-instance" xsi:noNamespaceSchemaLocation="http://sumo.dlr.de/xsd/net_file.xsd">

    <location netOffset="0.00,0.00" convBoundary="-14.77,31.57,134.11,75.97" origBoundary="10000000000.00,10000000000.00,-10000000000.00,-10000000000.00" projParameter="!"/>

    <edge id=":gneJ5_0" function="internal">
        <lane id=":gneJ5_0_0" index="0" speed="13.89" length="0.98" shape="51.39,62.75 51.67,62.69 51.86,62.63 52.03,62.51 52.24,62.32"/>
    </edge>
    <edge id=":gneJ6_0" function="internal">
        <lane id=":gneJ6_0_0" index="0" speed="4.23" length="1.27" shape="84.72,30.43 85.00,30.17 85.22,30.04 85.48,29.98 85.85,29.97"/>
    </edge>

    <edge id="gneE2" from="gneJ4" to="gneJ5" priority="-1">
        <lane id="gneE2_0" index="0" speed="13.89" length="67.45" shape="-15.04,74.39 51.39,62.75"/>
    </edge>
    <edge id="gneE3" from="gneJ5" to="gneJ6" priority="-1">
        <lane id="gneE3_0" index="0" speed="13.89" length="45.52" shape="52.24,62.32 84.72,30.43"/>
    </edge>
    <edge id="gneE4" from="gneJ6" to="gneJ7" priority="-1">
        <lane id="gneE4_0" index="0" speed="13.89" length="48.27" shape="85.85,29.97 134.12,30.17"/>
    </edge>

    <junction id="gneJ4" type="dead_end" x="-14.77" y="75.97" incLanes="" intLanes="" shape="-14.77,75.97 -15.32,72.82"/>
    <junction id="gneJ5" type="priority" x="52.65" y="64.15" incLanes="gneE2_0" intLanes=":gneJ5_0_0" shape="53.36,63.46 51.12,61.17 51.67,64.33 52.37,64.18 52.61,64.08 52.83,63.94 53.06,63.74">
        <request index="0" response="0" foes="0" cont="0"/>
    </junction>
    <junction id="gneJ6" type="priority" x="85.85" y="31.57" incLanes="gneE3_0" intLanes=":gneJ6_0_0" shape="85.85,31.57 85.86,28.37 84.93,28.41 84.60,28.50 84.30,28.67 83.99,28.92 83.60,29.28">
        <request index="0" response="0" foes="0" cont="0"/>
    </junction>
    <junction id="gneJ7" type="dead_end" x="134.11" y="31.77" incLanes="gneE4_0" intLanes="" shape="134.13,28.57 134.11,31.77"/>

    <connection from="gneE2" to="gneE3" fromLane="0" toLane="0" via=":gneJ5_0_0" dir="s" state="M"/>
    <connection from="gneE3" to="gneE4" fromLane="0" toLane="0" via=":gneJ6_0_0" dir="l" state="M"/>

    <connection from=":gneJ5_0" to="gneE3" fromLane="0" toLane="0" dir="s" state="M"/>
    <connection from=":gneJ6_0" to="gneE4" fromLane="0" toLane="0" dir="l" state="M"/>

</net>
