<?xml version="1.0" encoding="UTF-8"?>

<!-- generated on 01/26/20 15:27:09 by Eclipse SUMO GUI Version 1.4.0
-->

<configuration xmlns:xsi="http://www.w3.org/2001/XMLSchema-instance" xsi:noNamespaceSchemaLocation="http://sumo.dlr.de/xsd/sumoConfiguration.xsd">

    <input>
        <net-file value="C:\SUMO_APP\TUTOS\Driving_in_Circles\tst\tst.net.xml"/>
    </input>

    <gui_only>
        <registry-viewport value="true"/>
    </gui_only>

</configuration>
