<routes>
<vType accel="1.0" decel="5.0" id="Car" length="2.0" maxSpeed="100.0" sigma="0.0" />
<route id="route0" edges="Ariana-Tunis Tunis-Bardo Bardo-Benarous Benarous-Rades"/>
<vehicle depart="10" id="veh0" route="route0" type="Car" />
</routes>