<?xml version="1.0" encoding="UTF-8"?>

<!-- generated on 08/05/2020 08:57:42 by Eclipse SUMO netedit Version 1.5.0
<configuration xmlns:xsi="http://www.w3.org/2001/XMLSchema-instance" xsi:noNamespaceSchemaLocation="http://sumo.dlr.de/xsd/netconvertConfiguration.xsd">

    <output>
        <output-file value="C:\SUMO_APP\03-05\08-05\Exemple%202\network.net.xml"/>
    </output>

    <processing>
        <offset.disable-normalization value="true"/>
    </processing>

    <junctions>
        <no-turnarounds value="true"/>
    </junctions>

    <report>
        <aggregate-warnings value="5"/>
    </report>

</configuration>
-->

<net version="1.3" junctionCornerDetail="5" limitTurnSpeed="5.50" xmlns:xsi="http://www.w3.org/2001/XMLSchema-instance" xsi:noNamespaceSchemaLocation="http://sumo.dlr.de/xsd/net_file.xsd">

    <location netOffset="0.00,0.00" convBoundary="-34.85,21.43,161.04,83.33" origBoundary="10000000000.00,10000000000.00,-10000000000.00,-10000000000.00" projParameter="!"/>

    <edge id=":n2_0" function="internal">
        <lane id=":n2_0_0" index="0" speed="13.89" length="12.35" shape="23.29,58.67 20.48,56.80 17.98,55.39 15.32,54.51 12.04,54.20"/>
    </edge>
    <edge id=":n2_1" function="internal">
        <lane id=":n2_1_0" index="0" speed="7.53" length="5.67" shape="23.29,58.67 19.91,55.64 19.51,54.58"/>
    </edge>
    <edge id=":n2_6" function="internal">
        <lane id=":n2_6_0" index="0" speed="7.53" length="10.01" shape="19.51,54.58 18.73,52.56 19.75,49.41 22.97,46.22"/>
    </edge>
    <edge id=":n2_2" function="internal">
        <lane id=":n2_2_0" index="0" speed="5.90" length="9.11" shape="24.89,48.78 23.02,50.64 22.43,52.46 23.11,54.25 25.07,56.01"/>
    </edge>
    <edge id=":n2_3" function="internal">
        <lane id=":n2_3_0" index="0" speed="13.89" length="14.20" shape="24.89,48.78 21.89,50.89 18.84,52.61 15.59,53.77 12.04,54.20"/>
    </edge>
    <edge id=":n2_4" function="internal">
        <lane id=":n2_4_0" index="0" speed="13.48" length="12.22" shape="12.04,51.00 15.29,50.67 17.88,49.73 20.28,48.23 22.97,46.22"/>
    </edge>
    <edge id=":n2_5" function="internal">
        <lane id=":n2_5_0" index="0" speed="13.89" length="14.18" shape="12.04,51.00 15.60,51.39 18.87,52.46 21.99,54.05 25.07,56.01"/>
    </edge>
    <edge id=":n3_0" function="internal">
        <lane id=":n3_0_0" index="0" speed="6.13" length="6.55" shape="65.94,82.74 64.53,83.76 63.06,84.18 61.54,84.01 59.97,83.24"/>
    </edge>
    <edge id=":n3_1" function="internal">
        <lane id=":n3_1_0" index="0" speed="3.93" length="2.18" shape="61.75,80.58 62.28,80.84 62.78,80.90 63.27,80.75 63.74,80.41"/>
    </edge>
    <edge id=":n4_0" function="internal">
        <lane id=":n4_0_0" index="0" speed="3.93" length="2.18" shape="59.78,24.30 59.29,23.99 58.80,23.87 58.29,23.96 57.79,24.24"/>
    </edge>
    <edge id=":n4_1" function="internal">
        <lane id=":n4_1_0" index="0" speed="6.13" length="6.54" shape="55.87,21.67 57.40,20.83 58.90,20.58 60.39,20.92 61.86,21.87"/>
    </edge>
    <edge id=":n5_0" function="internal">
        <lane id=":n5_0_0" index="0" speed="11.56" length="11.20" shape="100.72,54.09 97.62,54.41 95.38,55.27 93.40,56.76 91.06,58.96"/>
    </edge>
    <edge id=":n5_1" function="internal">
        <lane id=":n5_1_0" index="0" speed="12.81" length="13.46" shape="100.72,54.09 97.26,53.78 94.24,52.76 91.45,51.10 88.66,48.91"/>
    </edge>
    <edge id=":n5_2" function="internal">
        <lane id=":n5_2_0" index="0" speed="11.73" length="11.24" shape="90.74,46.47 93.19,48.55 95.25,49.94 97.54,50.70 100.66,50.89"/>
    </edge>
    <edge id=":n5_3" function="internal">
        <lane id=":n5_3_0" index="0" speed="7.82" length="5.20" shape="90.74,46.47 93.42,49.53 93.75,50.61"/>
    </edge>
    <edge id=":n5_6" function="internal">
        <lane id=":n5_6_0" index="0" speed="7.82" length="9.42" shape="93.75,50.61 94.37,52.63 93.59,55.77 91.06,58.96"/>
    </edge>
    <edge id=":n5_4" function="internal">
        <lane id=":n5_4_0" index="0" speed="6.29" length="9.04" shape="88.86,56.63 90.42,54.66 90.91,52.72 90.32,50.80 88.66,48.91"/>
    </edge>
    <edge id=":n5_5" function="internal">
        <lane id=":n5_5_0" index="0" speed="12.64" length="13.46" shape="88.86,56.63 91.53,54.30 94.25,52.51 97.22,51.35 100.66,50.89"/>
    </edge>

    <edge id="-gneE0" from="n2" to="n1" priority="-1">
        <lane id="-gneE0_0" index="0" speed="13.89" length="46.89" shape="12.04,54.20 -34.85,54.20"/>
    </edge>
    <edge id="-gneE1" from="n3" to="n2" priority="-1">
        <lane id="-gneE1_0" index="0" speed="13.89" length="44.15" shape="59.97,83.24 23.29,58.67"/>
    </edge>
    <edge id="-gneE2" from="n5" to="n3" priority="-1">
        <lane id="-gneE2_0" index="0" speed="13.89" length="34.59" shape="91.06,58.96 65.94,82.74"/>
    </edge>
    <edge id="-gneE3" from="n6" to="n5" priority="-1">
        <lane id="-gneE3_0" index="0" speed="13.89" length="60.36" shape="161.07,52.90 100.72,54.09"/>
    </edge>
    <edge id="-gneE4" from="n4" to="n2" priority="-1">
        <lane id="-gneE4_0" index="0" speed="13.89" length="41.04" shape="57.79,24.24 24.89,48.78"/>
    </edge>
    <edge id="-gneE5" from="n5" to="n4" priority="-1">
        <lane id="-gneE5_0" index="0" speed="13.89" length="37.94" shape="88.66,48.91 59.78,24.30"/>
    </edge>
    <edge id="gneE0" from="n1" to="n2" priority="-1">
        <lane id="gneE0_0" index="0" speed="13.89" length="46.89" shape="-34.85,51.00 12.04,51.00"/>
    </edge>
    <edge id="gneE1" from="n2" to="n3" priority="-1">
        <lane id="gneE1_0" index="0" speed="13.89" length="44.15" shape="25.07,56.01 61.75,80.58"/>
    </edge>
    <edge id="gneE2" from="n3" to="n5" priority="-1">
        <lane id="gneE2_0" index="0" speed="13.89" length="34.59" shape="63.74,80.41 88.86,56.63"/>
    </edge>
    <edge id="gneE3" from="n5" to="n6" priority="-1">
        <lane id="gneE3_0" index="0" speed="13.89" length="60.36" shape="100.66,50.89 161.01,49.70"/>
    </edge>
    <edge id="gneE4" from="n2" to="n4" priority="-1">
        <lane id="gneE4_0" index="0" speed="13.89" length="41.04" shape="22.97,46.22 55.87,21.67"/>
    </edge>
    <edge id="gneE5" from="n4" to="n5" priority="-1">
        <lane id="gneE5_0" index="0" speed="13.89" length="37.94" shape="61.86,21.87 90.74,46.47"/>
    </edge>

    <junction id="n1" type="dead_end" x="-34.85" y="52.60" incLanes="-gneE0_0" intLanes="" shape="-34.85,52.60 -34.85,55.80 -34.85,52.60"/>
    <junction id="n2" type="priority" x="17.10" y="52.60" incLanes="-gneE1_0 -gneE4_0 gneE0_0" intLanes=":n2_0_0 :n2_6_0 :n2_2_0 :n2_3_0 :n2_4_0 :n2_5_0" shape="22.40,60.00 25.96,54.68 24.47,53.18 24.27,52.42 24.43,51.64 24.96,50.86 25.85,50.06 22.02,44.93 20.14,46.40 18.70,47.54 17.43,48.39 16.08,48.97 14.37,49.29 12.04,49.40 12.04,55.80 14.42,55.89 16.18,56.20 17.57,56.73 18.89,57.53 20.41,58.61">
        <request index="0" response="000000" foes="001000" cont="0"/>
        <request index="1" response="110000" foes="111000" cont="1"/>
        <request index="2" response="100000" foes="100000" cont="0"/>
        <request index="3" response="100011" foes="100011" cont="0"/>
        <request index="4" response="000000" foes="000010" cont="0"/>
        <request index="5" response="000000" foes="001110" cont="0"/>
    </junction>
    <junction id="n3" type="priority" x="62.99" y="83.33" incLanes="-gneE2_0 gneE1_0" intLanes=":n3_0_0 :n3_1_0" shape="67.04,83.90 62.64,79.25 59.08,84.57 61.85,85.76 63.20,85.82 64.51,85.54 65.79,84.89">
        <request index="0" response="00" foes="00" cont="0"/>
        <request index="1" response="00" foes="00" cont="0"/>
    </junction>
    <junction id="n4" type="priority" x="58.87" y="21.43" incLanes="-gneE5_0 gneE4_0" intLanes=":n4_0_0 :n4_1_0" shape="58.74,25.52 62.89,20.65 60.28,19.15 58.96,18.93 57.62,19.06 56.27,19.55 54.91,20.39">
        <request index="0" response="00" foes="00" cont="0"/>
        <request index="1" response="00" foes="00" cont="0"/>
    </junction>
    <junction id="n5" type="priority" x="95.45" y="52.60" incLanes="-gneE3_0 gneE5_0 gneE2_0" intLanes=":n5_0_0 :n5_1_0 :n5_2_0 :n5_6_0 :n5_4_0 :n5_5_0" shape="100.75,55.69 100.63,49.29 98.54,49.25 96.99,48.99 95.77,48.50 94.63,47.73 93.38,46.66 91.77,45.26 87.62,50.13 88.99,51.88 89.18,52.76 89.04,53.66 88.57,54.56 87.76,55.47 92.16,60.12 93.68,58.65 94.88,57.52 95.96,56.70 97.16,56.15 98.68,55.82">
        <request index="0" response="000000" foes="001000" cont="0"/>
        <request index="1" response="000000" foes="111000" cont="0"/>
        <request index="2" response="000000" foes="100000" cont="0"/>
        <request index="3" response="000011" foes="100011" cont="1"/>
        <request index="4" response="000010" foes="000010" cont="0"/>
        <request index="5" response="001110" foes="001110" cont="0"/>
    </junction>
    <junction id="n6" type="dead_end" x="161.04" y="51.30" incLanes="gneE3_0" intLanes="" shape="161.04,51.30 160.98,48.10 161.04,51.30"/>

    <junction id=":n2_6_0" type="internal" x="19.51" y="54.58" incLanes=":n2_1_0 gneE0_0" intLanes=":n2_3_0 :n2_4_0 :n2_5_0"/>
    <junction id=":n5_6_0" type="internal" x="93.75" y="50.61" incLanes=":n5_3_0 -gneE3_0" intLanes=":n5_0_0 :n5_1_0 :n5_5_0"/>

    <connection from="-gneE1" to="-gneE0" fromLane="0" toLane="0" via=":n2_0_0" dir="s" state="M"/>
    <connection from="-gneE1" to="gneE4" fromLane="0" toLane="0" via=":n2_1_0" dir="l" state="m"/>
    <connection from="-gneE2" to="-gneE1" fromLane="0" toLane="0" via=":n3_0_0" dir="l" state="M"/>
    <connection from="-gneE3" to="-gneE2" fromLane="0" toLane="0" via=":n5_0_0" dir="R" state="M"/>
    <connection from="-gneE3" to="-gneE5" fromLane="0" toLane="0" via=":n5_1_0" dir="s" state="M"/>
    <connection from="-gneE4" to="gneE1" fromLane="0" toLane="0" via=":n2_2_0" dir="r" state="m"/>
    <connection from="-gneE4" to="-gneE0" fromLane="0" toLane="0" via=":n2_3_0" dir="s" state="m"/>
    <connection from="-gneE5" to="-gneE4" fromLane="0" toLane="0" via=":n4_0_0" dir="r" state="M"/>
    <connection from="gneE0" to="gneE4" fromLane="0" toLane="0" via=":n2_4_0" dir="R" state="M"/>
    <connection from="gneE0" to="gneE1" fromLane="0" toLane="0" via=":n2_5_0" dir="s" state="M"/>
    <connection from="gneE1" to="gneE2" fromLane="0" toLane="0" via=":n3_1_0" dir="r" state="M"/>
    <connection from="gneE2" to="-gneE5" fromLane="0" toLane="0" via=":n5_4_0" dir="r" state="m"/>
    <connection from="gneE2" to="gneE3" fromLane="0" toLane="0" via=":n5_5_0" dir="s" state="m"/>
    <connection from="gneE4" to="gneE5" fromLane="0" toLane="0" via=":n4_1_0" dir="l" state="M"/>
    <connection from="gneE5" to="gneE3" fromLane="0" toLane="0" via=":n5_2_0" dir="s" state="M"/>
    <connection from="gneE5" to="-gneE2" fromLane="0" toLane="0" via=":n5_3_0" dir="l" state="m"/>

    <connection from=":n2_0" to="-gneE0" fromLane="0" toLane="0" dir="s" state="M"/>
    <connection from=":n2_1" to="gneE4" fromLane="0" toLane="0" via=":n2_6_0" dir="l" state="m"/>
    <connection from=":n2_6" to="gneE4" fromLane="0" toLane="0" dir="l" state="M"/>
    <connection from=":n2_2" to="gneE1" fromLane="0" toLane="0" dir="r" state="M"/>
    <connection from=":n2_3" to="-gneE0" fromLane="0" toLane="0" dir="s" state="M"/>
    <connection from=":n2_4" to="gneE4" fromLane="0" toLane="0" dir="R" state="M"/>
    <connection from=":n2_5" to="gneE1" fromLane="0" toLane="0" dir="s" state="M"/>
    <connection from=":n3_0" to="-gneE1" fromLane="0" toLane="0" dir="l" state="M"/>
    <connection from=":n3_1" to="gneE2" fromLane="0" toLane="0" dir="r" state="M"/>
    <connection from=":n4_0" to="-gneE4" fromLane="0" toLane="0" dir="r" state="M"/>
    <connection from=":n4_1" to="gneE5" fromLane="0" toLane="0" dir="l" state="M"/>
    <connection from=":n5_0" to="-gneE2" fromLane="0" toLane="0" dir="R" state="M"/>
    <connection from=":n5_1" to="-gneE5" fromLane="0" toLane="0" dir="s" state="M"/>
    <connection from=":n5_2" to="gneE3" fromLane="0" toLane="0" dir="s" state="M"/>
    <connection from=":n5_3" to="-gneE2" fromLane="0" toLane="0" via=":n5_6_0" dir="l" state="m"/>
    <connection from=":n5_6" to="-gneE2" fromLane="0" toLane="0" dir="l" state="M"/>
    <connection from=":n5_4" to="-gneE5" fromLane="0" toLane="0" dir="r" state="M"/>
    <connection from=":n5_5" to="gneE3" fromLane="0" toLane="0" dir="s" state="M"/>

</net>
