<?xml version="1.0" encoding="UTF-8"?>

<!-- generated on 02/13/20 11:41:43 by Eclipse SUMO netedit Version 1.4.0
<configuration xmlns:xsi="http://www.w3.org/2001/XMLSchema-instance" xsi:noNamespaceSchemaLocation="http://sumo.dlr.de/xsd/netconvertConfiguration.xsd">

    <output>
        <output-file value="C:\SUMO_APP\TUTOS\Sumolympics\net.net.xml"/>
    </output>

    <processing>
        <offset.disable-normalization value="true"/>
    </processing>

    <junctions>
        <no-turnarounds value="true"/>
    </junctions>

    <report>
        <aggregate-warnings value="5"/>
    </report>

</configuration>
-->

<net version="1.3" junctionCornerDetail="5" limitTurnSpeed="5.50" xmlns:xsi="http://www.w3.org/2001/XMLSchema-instance" xsi:noNamespaceSchemaLocation="http://sumo.dlr.de/xsd/net_file.xsd">

    <location netOffset="0.00,0.00" convBoundary="0.00,0.00,1000.00,0.00" origBoundary="10000000000.00,10000000000.00,-10000000000.00,-10000000000.00" projParameter="!"/>

    <edge id=":gneJ2_0" function="internal">
        <lane id=":gneJ2_0_0" index="0" allow="pedestrian" speed="13.89" length="0.10" width="2.00" shape="900.00,-12.60 900.00,-12.60"/>
        <lane id=":gneJ2_0_1" index="1" allow="bicycle" speed="13.89" length="0.10" width="2.00" shape="900.00,-10.60 900.00,-10.60"/>
        <lane id=":gneJ2_0_2" index="2" allow="bus" speed="13.89" length="0.10" shape="900.00,-8.00 900.00,-8.00"/>
        <lane id=":gneJ2_0_3" index="3" disallow="pedestrian" speed="13.89" length="0.10" shape="900.00,-4.80 900.00,-4.80"/>
        <lane id=":gneJ2_0_4" index="4" allow="rail_urban" speed="13.89" length="0.10" shape="900.00,-1.60 900.00,-1.60"/>
    </edge>

    <edge id="beg" from="gneJ0" to="gneJ2" priority="-1">
        <lane id="beg_0" index="0" allow="pedestrian" speed="13.89" length="900.00" width="2.00" shape="0.00,-12.60 900.00,-12.60"/>
        <lane id="beg_1" index="1" allow="bicycle" speed="13.89" length="900.00" width="2.00" shape="0.00,-10.60 900.00,-10.60"/>
        <lane id="beg_2" index="2" allow="bus" speed="13.89" length="900.00" shape="0.00,-8.00 900.00,-8.00"/>
        <lane id="beg_3" index="3" disallow="pedestrian" speed="13.89" length="900.00" shape="0.00,-4.80 900.00,-4.80"/>
        <lane id="beg_4" index="4" allow="rail_urban" speed="13.89" length="900.00" shape="0.00,-1.60 900.00,-1.60"/>
    </edge>
    <edge id="end" from="gneJ2" to="gneJ1" priority="-1">
        <lane id="end_0" index="0" allow="pedestrian" speed="13.89" length="100.00" width="2.00" shape="900.00,-12.60 1000.00,-12.60"/>
        <lane id="end_1" index="1" allow="bicycle" speed="13.89" length="100.00" width="2.00" shape="900.00,-10.60 1000.00,-10.60"/>
        <lane id="end_2" index="2" allow="bus" speed="13.89" length="100.00" shape="900.00,-8.00 1000.00,-8.00"/>
        <lane id="end_3" index="3" disallow="pedestrian" speed="13.89" length="100.00" shape="900.00,-4.80 1000.00,-4.80"/>
        <lane id="end_4" index="4" allow="rail_urban" speed="13.89" length="100.00" shape="900.00,-1.60 1000.00,-1.60"/>
    </edge>

    <junction id="gneJ0" type="dead_end" x="0.00" y="0.00" incLanes="" intLanes="" shape="0.00,0.00 0.00,-13.60"/>
    <junction id="gneJ1" type="dead_end" x="1000.00" y="0.00" incLanes="end_0 end_1 end_2 end_3 end_4" intLanes="" shape="1000.00,-13.60 1000.00,0.00"/>
    <junction id="gneJ2" type="priority" x="900.00" y="0.00" incLanes="beg_0 beg_1 beg_2 beg_3 beg_4" intLanes=":gneJ2_0_0 :gneJ2_0_1 :gneJ2_0_2 :gneJ2_0_3 :gneJ2_0_4" shape="900.00,0.00 900.00,-13.60 900.00,0.00">
        <request index="0" response="00000" foes="00000" cont="0"/>
        <request index="1" response="00000" foes="00000" cont="0"/>
        <request index="2" response="00000" foes="00000" cont="0"/>
        <request index="3" response="00000" foes="00000" cont="0"/>
        <request index="4" response="00000" foes="00000" cont="0"/>
    </junction>

    <connection from="beg" to="end" fromLane="0" toLane="0" via=":gneJ2_0_0" dir="s" state="M"/>
    <connection from="beg" to="end" fromLane="1" toLane="1" via=":gneJ2_0_1" dir="s" state="M"/>
    <connection from="beg" to="end" fromLane="2" toLane="2" via=":gneJ2_0_2" dir="s" state="M"/>
    <connection from="beg" to="end" fromLane="3" toLane="3" via=":gneJ2_0_3" dir="s" state="M"/>
    <connection from="beg" to="end" fromLane="4" toLane="4" via=":gneJ2_0_4" dir="s" state="M"/>

    <connection from=":gneJ2_0" to="end" fromLane="0" toLane="0" dir="s" state="M"/>
    <connection from=":gneJ2_0" to="end" fromLane="1" toLane="1" dir="s" state="M"/>
    <connection from=":gneJ2_0" to="end" fromLane="2" toLane="2" dir="s" state="M"/>
    <connection from=":gneJ2_0" to="end" fromLane="3" toLane="3" dir="s" state="M"/>
    <connection from=":gneJ2_0" to="end" fromLane="4" toLane="4" dir="s" state="M"/>

</net>
