<routes>
   <flow id="carflow" beg="0" end="0" number="5" from="1-2" to="3-4"/>
</routes>