<?xml version="1.0" encoding="UTF-8"?>

<!-- generated on 01/27/20 15:35:59 by Eclipse SUMO netedit Version 1.4.0
<configuration xmlns:xsi="http://www.w3.org/2001/XMLSchema-instance" xsi:noNamespaceSchemaLocation="http://sumo.dlr.de/xsd/netconvertConfiguration.xsd">

    <output>
        <output-file value="C:\SUMO_APP\TUTOS\Driving_in_Circles\tst4\circle.net.xml"/>
    </output>

    <processing>
        <offset.disable-normalization value="true"/>
    </processing>

    <junctions>
        <no-turnarounds value="true"/>
    </junctions>

    <report>
        <aggregate-warnings value="5"/>
    </report>

</configuration>
-->

<net version="1.3" junctionCornerDetail="5" limitTurnSpeed="5.50" xmlns:xsi="http://www.w3.org/2001/XMLSchema-instance" xsi:noNamespaceSchemaLocation="http://sumo.dlr.de/xsd/net_file.xsd">

    <location netOffset="0.00,0.00" convBoundary="-3.36,17.31,73.42,84.32" origBoundary="10000000000.00,10000000000.00,-10000000000.00,-10000000000.00" projParameter="!"/>

    <edge id=":1_0" function="internal">
        <lane id=":1_0_0" index="0" speed="6.35" length="4.78" shape="-2.93,69.73 -3.83,68.89 -4.45,67.92 -4.79,66.81 -4.85,65.58"/>
    </edge>
    <edge id=":1_1" function="internal">
        <lane id=":1_1_0" index="0" speed="4.05" length="1.59" shape="-1.65,65.79 -1.63,66.20 -1.52,66.56 -1.31,66.89 -1.01,67.17"/>
    </edge>
    <edge id=":2_0" function="internal">
        <lane id=":2_0_0" index="0" speed="7.17" length="2.94" shape="18.56,84.73 17.69,84.68 17.10,84.56 16.56,84.28 15.86,83.78"/>
    </edge>
    <edge id=":2_1" function="internal">
        <lane id=":2_1_0" index="0" speed="13.89" length="0.98" shape="17.77,81.22 18.01,81.38 18.19,81.47 18.39,81.52 18.67,81.53"/>
    </edge>
    <edge id=":3_0" function="internal">
        <lane id=":3_0_0" index="0" speed="6.60" length="3.85" shape="53.71,84.53 52.95,85.14 52.11,85.57 51.20,85.81 50.22,85.87"/>
    </edge>
    <edge id=":3_1" function="internal">
        <lane id=":3_1_0" index="0" speed="4.18" length="1.28" shape="50.33,82.67 50.66,82.65 50.96,82.57 51.24,82.43 51.50,82.23"/>
    </edge>
    <edge id=":4_0" function="internal">
        <lane id=":4_0_0" index="0" speed="6.73" length="3.73" shape="73.85,63.35 73.77,64.44 73.57,65.18 73.14,65.83 72.38,66.61"/>
    </edge>
    <edge id=":4_1" function="internal">
        <lane id=":4_1_0" index="0" speed="4.25" length="1.24" shape="70.17,64.30 70.42,64.04 70.56,63.82 70.63,63.57 70.66,63.21"/>
    </edge>
    <edge id=":5_0" function="internal">
        <lane id=":5_0_0" index="0" speed="6.47" length="4.28" shape="73.33,33.63 74.08,34.44 74.60,35.34 74.89,36.34 74.96,37.44"/>
    </edge>
    <edge id=":5_1" function="internal">
        <lane id=":5_1_0" index="0" speed="4.11" length="1.43" shape="71.76,37.30 71.74,36.94 71.64,36.61 71.47,36.30 71.22,36.04"/>
    </edge>
    <edge id=":6_0" function="internal">
        <lane id=":6_0_0" index="0" speed="4.31" length="1.15" shape="52.68,19.70 52.42,19.49 52.22,19.37 51.98,19.32 51.65,19.30"/>
    </edge>
    <edge id=":6_1" function="internal">
        <lane id=":6_1_0" index="0" speed="6.85" length="3.46" shape="51.69,16.10 52.70,16.15 53.40,16.30 54.02,16.65 54.80,17.30"/>
    </edge>
    <edge id=":7_0" function="internal">
        <lane id=":7_0_0" index="0" speed="4.42" length="1.04" shape="21.30,18.92 21.00,18.93 20.79,18.96 20.60,19.06 20.35,19.23"/>
    </edge>
    <edge id=":7_1" function="internal">
        <lane id=":7_1_0" index="0" speed="7.05" length="3.11" shape="18.47,16.64 19.22,16.12 19.80,15.84 20.43,15.74 21.34,15.72"/>
    </edge>
    <edge id=":8_0" function="internal">
        <lane id=":8_0_0" index="0" speed="4.12" length="1.41" shape="1.04,33.20 0.77,33.44 0.57,33.72 0.44,34.04 0.38,34.40"/>
    </edge>
    <edge id=":8_1" function="internal">
        <lane id=":8_1_0" index="0" speed="6.48" length="4.23" shape="-2.81,34.19 -2.64,33.12 -2.25,32.17 -1.65,31.33 -0.84,30.61"/>
    </edge>

    <edge id="1-2" from="1" to="2" priority="-1">
        <lane id="1-2_0" index="0" speed="13.89" length="23.46" shape="-1.01,67.17 17.77,81.22"/>
    </edge>
    <edge id="1-8" from="1" to="8" priority="-1">
        <lane id="1-8_0" index="0" speed="13.89" length="31.46" shape="-4.85,65.58 -2.81,34.19"/>
    </edge>
    <edge id="2-1" from="2" to="1" priority="-1">
        <lane id="2-1_0" index="0" speed="13.89" length="23.46" shape="15.86,83.78 -2.93,69.73"/>
    </edge>
    <edge id="2-3" from="2" to="3" priority="-1">
        <lane id="2-3_0" index="0" speed="13.89" length="31.68" shape="18.67,81.53 50.33,82.67"/>
    </edge>
    <edge id="3-2" from="3" to="2" priority="-1">
        <lane id="3-2_0" index="0" speed="13.89" length="31.68" shape="50.22,85.87 18.56,84.73"/>
    </edge>
    <edge id="3-4" from="3" to="4" priority="-1">
        <lane id="3-4_0" index="0" speed="13.89" length="25.88" shape="51.50,82.23 70.17,64.30"/>
    </edge>
    <edge id="4-3" from="4" to="3" priority="-1">
        <lane id="4-3_0" index="0" speed="13.89" length="25.88" shape="72.38,66.61 53.71,84.53"/>
    </edge>
    <edge id="4-5" from="4" to="5" priority="-1">
        <lane id="4-5_0" index="0" speed="13.89" length="25.93" shape="70.66,63.21 71.76,37.30"/>
    </edge>
    <edge id="5-4" from="5" to="4" priority="-1">
        <lane id="5-4_0" index="0" speed="13.89" length="25.93" shape="74.96,37.44 73.85,63.35"/>
    </edge>
    <edge id="5-6" from="5" to="6" priority="-1">
        <lane id="5-6_0" index="0" speed="13.89" length="24.70" shape="71.22,36.04 52.68,19.70"/>
    </edge>
    <edge id="6-5" from="6" to="5" priority="-1">
        <lane id="6-5_0" index="0" speed="13.89" length="24.70" shape="54.80,17.30 73.33,33.63"/>
    </edge>
    <edge id="6-7" from="6" to="7" priority="-1">
        <lane id="6-7_0" index="0" speed="13.89" length="30.34" shape="51.65,19.30 21.30,18.92"/>
    </edge>
    <edge id="7-6" from="7" to="6" priority="-1">
        <lane id="7-6_0" index="0" speed="13.89" length="30.34" shape="21.34,15.72 51.69,16.10"/>
    </edge>
    <edge id="7-8" from="7" to="8" priority="-1">
        <lane id="7-8_0" index="0" speed="13.89" length="23.83" shape="20.35,19.23 1.04,33.20"/>
    </edge>
    <edge id="8-1" from="8" to="1" priority="-1">
        <lane id="8-1_0" index="0" speed="13.89" length="31.46" shape="0.38,34.40 -1.65,65.79"/>
    </edge>
    <edge id="8-7" from="8" to="7" priority="-1">
        <lane id="8-7_0" index="0" speed="13.89" length="23.83" shape="-0.84,30.61 18.47,16.64"/>
    </edge>

    <junction id="1" type="priority" x="-3.36" y="67.41" incLanes="2-1_0 8-1_0" intLanes=":1_0_0 :1_1_0" shape="-3.89,71.02 -0.06,65.89 -6.44,65.48 -6.26,67.63 -5.92,68.59 -5.41,69.48 -4.73,70.28">
        <request index="0" response="00" foes="00" cont="0"/>
        <request index="1" response="00" foes="00" cont="0"/>
    </junction>
    <junction id="2" type="priority" x="17.62" y="83.10" incLanes="3-2_0 1-2_0" intLanes=":2_0_0 :2_1_0" shape="18.50,86.33 18.73,79.93 14.90,85.06 16.09,85.88 16.56,86.10 17.06,86.22 17.68,86.29">
        <request index="0" response="00" foes="00" cont="0"/>
        <request index="1" response="00" foes="00" cont="0"/>
    </junction>
    <junction id="3" type="priority" x="51.63" y="84.32" incLanes="4-3_0 2-3_0" intLanes=":3_0_0 :3_1_0" shape="54.82,85.69 50.39,81.07 50.16,87.47 51.88,87.31 52.68,87.07 53.44,86.72 54.15,86.26">
        <request index="0" response="00" foes="00" cont="0"/>
        <request index="1" response="00" foes="00" cont="0"/>
    </junction>
    <junction id="4" type="priority" x="72.20" y="64.56" incLanes="5-4_0 3-4_0" intLanes=":4_0_0 :4_1_0" shape="75.45,63.42 69.06,63.14 73.49,67.76 74.74,66.43 75.08,65.86 75.28,65.23 75.39,64.45">
        <request index="0" response="00" foes="00" cont="0"/>
        <request index="1" response="00" foes="00" cont="0"/>
    </junction>
    <junction id="5" type="priority" x="73.42" y="35.85" incLanes="6-5_0 4-5_0" intLanes=":5_0_0 :5_1_0" shape="74.39,32.43 70.16,37.24 76.55,37.51 76.37,35.59 76.08,34.71 75.65,33.90 75.09,33.14">
        <request index="0" response="00" foes="00" cont="0"/>
        <request index="1" response="00" foes="00" cont="0"/>
    </junction>
    <junction id="6" type="priority" x="52.85" y="17.72" incLanes="5-6_0 7-6_0" intLanes=":6_0_0 :6_1_0" shape="51.63,20.90 55.86,16.10 54.53,15.04 53.99,14.76 53.40,14.60 52.67,14.53 51.71,14.50">
        <request index="0" response="00" foes="00" cont="0"/>
        <request index="1" response="00" foes="00" cont="0"/>
    </junction>
    <junction id="7" type="priority" x="20.26" y="17.31" incLanes="6-7_0 8-7_0" intLanes=":7_0_0 :7_1_0" shape="21.28,20.52 21.36,14.13 19.84,14.17 19.30,14.28 18.80,14.50 18.24,14.84 17.53,15.34">
        <request index="0" response="00" foes="00" cont="0"/>
        <request index="1" response="00" foes="00" cont="0"/>
    </junction>
    <junction id="8" type="priority" x="-1.12" y="32.79" incLanes="7-8_0 1-8_0" intLanes=":8_0_0 :8_1_0" shape="1.98,34.50 -1.78,29.32 -3.15,30.63 -3.65,31.39 -4.03,32.22 -4.28,33.12 -4.41,34.09">
        <request index="0" response="00" foes="00" cont="0"/>
        <request index="1" response="00" foes="00" cont="0"/>
    </junction>

    <connection from="1-2" to="2-3" fromLane="0" toLane="0" via=":2_1_0" dir="s" state="M"/>
    <connection from="1-8" to="8-7" fromLane="0" toLane="0" via=":8_1_0" dir="l" state="M"/>
    <connection from="2-1" to="1-8" fromLane="0" toLane="0" via=":1_0_0" dir="l" state="M"/>
    <connection from="2-3" to="3-4" fromLane="0" toLane="0" via=":3_1_0" dir="r" state="M"/>
    <connection from="3-2" to="2-1" fromLane="0" toLane="0" via=":2_0_0" dir="s" state="M"/>
    <connection from="3-4" to="4-5" fromLane="0" toLane="0" via=":4_1_0" dir="s" state="M"/>
    <connection from="4-3" to="3-2" fromLane="0" toLane="0" via=":3_0_0" dir="l" state="M"/>
    <connection from="4-5" to="5-6" fromLane="0" toLane="0" via=":5_1_0" dir="r" state="M"/>
    <connection from="5-4" to="4-3" fromLane="0" toLane="0" via=":4_0_0" dir="s" state="M"/>
    <connection from="5-6" to="6-7" fromLane="0" toLane="0" via=":6_0_0" dir="s" state="M"/>
    <connection from="6-5" to="5-4" fromLane="0" toLane="0" via=":5_0_0" dir="l" state="M"/>
    <connection from="6-7" to="7-8" fromLane="0" toLane="0" via=":7_0_0" dir="s" state="M"/>
    <connection from="7-6" to="6-5" fromLane="0" toLane="0" via=":6_1_0" dir="s" state="M"/>
    <connection from="7-8" to="8-1" fromLane="0" toLane="0" via=":8_0_0" dir="r" state="M"/>
    <connection from="8-1" to="1-2" fromLane="0" toLane="0" via=":1_1_0" dir="r" state="M"/>
    <connection from="8-7" to="7-6" fromLane="0" toLane="0" via=":7_1_0" dir="s" state="M"/>

    <connection from=":1_0" to="1-8" fromLane="0" toLane="0" dir="l" state="M"/>
    <connection from=":1_1" to="1-2" fromLane="0" toLane="0" dir="r" state="M"/>
    <connection from=":2_0" to="2-1" fromLane="0" toLane="0" dir="s" state="M"/>
    <connection from=":2_1" to="2-3" fromLane="0" toLane="0" dir="s" state="M"/>
    <connection from=":3_0" to="3-2" fromLane="0" toLane="0" dir="l" state="M"/>
    <connection from=":3_1" to="3-4" fromLane="0" toLane="0" dir="r" state="M"/>
    <connection from=":4_0" to="4-3" fromLane="0" toLane="0" dir="s" state="M"/>
    <connection from=":4_1" to="4-5" fromLane="0" toLane="0" dir="s" state="M"/>
    <connection from=":5_0" to="5-4" fromLane="0" toLane="0" dir="l" state="M"/>
    <connection from=":5_1" to="5-6" fromLane="0" toLane="0" dir="r" state="M"/>
    <connection from=":6_0" to="6-7" fromLane="0" toLane="0" dir="s" state="M"/>
    <connection from=":6_1" to="6-5" fromLane="0" toLane="0" dir="s" state="M"/>
    <connection from=":7_0" to="7-8" fromLane="0" toLane="0" dir="s" state="M"/>
    <connection from=":7_1" to="7-6" fromLane="0" toLane="0" dir="s" state="M"/>
    <connection from=":8_0" to="8-1" fromLane="0" toLane="0" dir="r" state="M"/>
    <connection from=":8_1" to="8-7" fromLane="0" toLane="0" dir="l" state="M"/>

</net>
