<routes>
   <flow id="carflow" beg="0" end="0" number="5" from="1-2" to="6-7"/>
   <vType accel="1.0" decel="5.0" id="Bus" length="12.0" maxSpeed="1.0" sigma="0.0" />
      <route id="route0" edges="1-2 2-3"/>
   <vehicle depart="10" id="veh0" route="route0" type="Bus"/>

</routes>