<?xml version="1.0" encoding="UTF-8"?>

<!-- generated on 01/27/20 20:53:16 by Eclipse SUMO netedit Version 1.4.0
<configuration xmlns:xsi="http://www.w3.org/2001/XMLSchema-instance" xsi:noNamespaceSchemaLocation="http://sumo.dlr.de/xsd/netconvertConfiguration.xsd">

    <output>
        <output-file value="C:\SUMO_APP\TUTOS\Driving_in_Circles\tst6\net.net.xml"/>
    </output>

    <processing>
        <offset.disable-normalization value="true"/>
    </processing>

    <junctions>
        <no-turnarounds value="true"/>
    </junctions>

    <report>
        <aggregate-warnings value="5"/>
    </report>

</configuration>
-->

<net version="1.3" junctionCornerDetail="5" limitTurnSpeed="5.50" xmlns:xsi="http://www.w3.org/2001/XMLSchema-instance" xsi:noNamespaceSchemaLocation="http://sumo.dlr.de/xsd/net_file.xsd">

    <location netOffset="0.00,0.00" convBoundary="-7.02,19.14,75.84,84.93" origBoundary="10000000000.00,10000000000.00,-10000000000.00,-10000000000.00" projParameter="!"/>

    <edge id=":1_0" function="internal">
        <lane id=":1_0_0" index="0" speed="6.53" length="4.05" shape="-7.07,67.32 -7.75,66.54 -8.23,65.67 -8.51,64.72 -8.58,63.69"/>
    </edge>
    <edge id=":1_1" function="internal">
        <lane id=":1_1_0" index="0" speed="4.14" length="1.35" shape="-5.38,63.78 -5.36,64.12 -5.26,64.44 -5.11,64.73 -4.88,64.99"/>
    </edge>
    <edge id=":2_0" function="internal">
        <lane id=":2_0_0" index="0" speed="6.73" length="3.72" shape="15.24,86.52 14.15,86.49 13.40,86.33 12.74,85.94 11.92,85.22"/>
    </edge>
    <edge id=":2_1" function="internal">
        <lane id=":2_1_0" index="0" speed="4.25" length="1.24" shape="14.12,82.89 14.39,83.13 14.61,83.26 14.86,83.31 15.22,83.32"/>
    </edge>
    <edge id=":3_0" function="internal">
        <lane id=":3_0_0" index="0" speed="6.62" length="3.79" shape="56.15,84.89 55.41,85.52 54.60,85.97 53.71,86.24 52.75,86.33"/>
    </edge>
    <edge id=":3_1" function="internal">
        <lane id=":3_1_0" index="0" speed="4.19" length="1.26" shape="52.73,83.13 53.05,83.10 53.35,83.01 53.62,82.86 53.87,82.65"/>
    </edge>
    <edge id=":4_0" function="internal">
        <lane id=":4_0_0" index="0" speed="6.56" length="3.97" shape="77.37,61.05 77.32,62.06 77.08,63.00 76.64,63.86 76.00,64.65"/>
    </edge>
    <edge id=":4_1" function="internal">
        <lane id=":4_1_0" index="0" speed="4.16" length="1.32" shape="73.72,62.41 73.93,62.15 74.08,61.86 74.16,61.55 74.17,61.21"/>
    </edge>
    <edge id=":5_0" function="internal">
        <lane id=":5_0_0" index="0" speed="4.31" length="1.16" shape="73.05,38.96 73.03,38.62 72.97,38.39 72.84,38.19 72.61,37.93"/>
    </edge>
    <edge id=":5_1" function="internal">
        <lane id=":5_1_0" index="0" speed="6.84" length="3.47" shape="74.93,35.73 75.61,36.48 75.99,37.09 76.17,37.78 76.25,38.80"/>
    </edge>
    <edge id=":6_0" function="internal">
        <lane id=":6_0_0" index="0" speed="4.18" length="1.29" shape="56.91,21.45 56.66,21.23 56.39,21.08 56.09,20.99 55.76,20.95"/>
    </edge>
    <edge id=":6_1" function="internal">
        <lane id=":6_1_0" index="0" speed="6.60" length="3.86" shape="55.78,17.75 56.76,17.85 57.66,18.13 58.48,18.59 59.23,19.24"/>
    </edge>
    <edge id=":7_0" function="internal">
        <lane id=":7_0_0" index="0" speed="13.89" length="0.99" shape="16.58,20.75 16.29,20.75 16.09,20.79 15.91,20.87 15.66,21.04"/>
    </edge>
    <edge id=":7_1" function="internal">
        <lane id=":7_1_0" index="0" speed="7.15" length="2.97" shape="13.84,18.41 14.57,17.92 15.12,17.67 15.73,17.56 16.60,17.55"/>
    </edge>
    <edge id=":8_0" function="internal">
        <lane id=":8_0_0" index="0" speed="4.08" length="1.50" shape="-3.90,34.62 -4.19,34.87 -4.40,35.17 -4.54,35.51 -4.59,35.89"/>
    </edge>
    <edge id=":8_1" function="internal">
        <lane id=":8_1_0" index="0" speed="6.41" length="4.49" shape="-7.79,35.80 -7.63,34.65 -7.24,33.64 -6.60,32.75 -5.73,31.99"/>
    </edge>

    <edge id="1-2" from="1" to="2" priority="-1">
        <lane id="1-2_0" index="0" speed="13.89" length="26.10" shape="-4.88,64.99 14.12,82.89"/>
    </edge>
    <edge id="1-8" from="1" to="8" priority="-1">
        <lane id="1-8_0" index="0" speed="13.89" length="27.90" shape="-8.58,63.69 -7.79,35.80"/>
    </edge>
    <edge id="2-1" from="2" to="1" priority="-1">
        <lane id="2-1_0" index="0" speed="13.89" length="26.10" shape="11.92,85.22 -7.07,67.32"/>
    </edge>
    <edge id="2-3" from="2" to="3" priority="-1">
        <lane id="2-3_0" index="0" speed="13.89" length="37.51" shape="15.22,83.32 52.73,83.13"/>
    </edge>
    <edge id="3-2" from="3" to="2" priority="-1">
        <lane id="3-2_0" index="0" speed="13.89" length="37.51" shape="52.75,86.33 15.24,86.52"/>
    </edge>
    <edge id="3-4" from="3" to="4" priority="-1">
        <lane id="3-4_0" index="0" speed="13.89" length="28.35" shape="53.87,82.65 73.72,62.41"/>
    </edge>
    <edge id="4-3" from="4" to="3" priority="-1">
        <lane id="4-3_0" index="0" speed="13.89" length="28.35" shape="76.00,64.65 56.15,84.89"/>
    </edge>
    <edge id="4-5" from="4" to="5" priority="-1">
        <lane id="4-5_0" index="0" speed="13.89" length="22.28" shape="74.17,61.21 73.05,38.96"/>
    </edge>
    <edge id="5-4" from="5" to="4" priority="-1">
        <lane id="5-4_0" index="0" speed="13.89" length="22.28" shape="76.25,38.80 77.37,61.05"/>
    </edge>
    <edge id="5-6" from="5" to="6" priority="-1">
        <lane id="5-6_0" index="0" speed="13.89" length="22.77" shape="72.61,37.93 56.91,21.45"/>
    </edge>
    <edge id="6-5" from="6" to="5" priority="-1">
        <lane id="6-5_0" index="0" speed="13.89" length="22.77" shape="59.23,19.24 74.93,35.73"/>
    </edge>
    <edge id="6-7" from="6" to="7" priority="-1">
        <lane id="6-7_0" index="0" speed="13.89" length="39.18" shape="55.76,20.95 16.58,20.75"/>
    </edge>
    <edge id="7-6" from="7" to="6" priority="-1">
        <lane id="7-6_0" index="0" speed="13.89" length="39.18" shape="16.60,17.55 55.78,17.75"/>
    </edge>
    <edge id="7-8" from="7" to="8" priority="-1">
        <lane id="7-8_0" index="0" speed="13.89" length="23.82" shape="15.66,21.04 -3.90,34.62"/>
    </edge>
    <edge id="8-7" from="8" to="7" priority="-1">
        <lane id="8-7_0" index="0" speed="13.89" length="23.82" shape="-5.73,31.99 13.84,18.41"/>
    </edge>
    <edge id="8-9" from="8" to="1" priority="-1">
        <lane id="8-9_0" index="0" speed="13.89" length="27.90" shape="-4.59,35.89 -5.38,63.78"/>
    </edge>

    <junction id="1" type="priority" x="-7.02" y="65.17" incLanes="2-1_0 8-9_0" intLanes=":1_0_0 :1_1_0" shape="-8.17,68.48 -3.78,63.83 -10.18,63.64 -9.99,65.46 -9.72,66.29 -9.32,67.07 -8.81,67.80">
        <request index="0" response="00" foes="00" cont="0"/>
        <request index="1" response="00" foes="00" cont="0"/>
    </junction>
    <junction id="2" type="priority" x="13.95" y="84.93" incLanes="3-2_0 1-2_0" intLanes=":2_0_0 :2_1_0" shape="15.25,88.12 15.21,81.72 10.83,86.38 12.21,87.56 12.79,87.87 13.43,88.04 14.21,88.11">
        <request index="0" response="00" foes="00" cont="0"/>
        <request index="1" response="00" foes="00" cont="0"/>
    </junction>
    <junction id="3" type="priority" x="54.07" y="84.73" incLanes="4-3_0 2-3_0" intLanes=":3_0_0 :3_1_0" shape="57.29,86.01 52.72,81.53 52.76,87.93 54.45,87.71 55.22,87.45 55.96,87.07 56.65,86.60">
        <request index="0" response="00" foes="00" cont="0"/>
        <request index="1" response="00" foes="00" cont="0"/>
    </junction>
    <junction id="4" type="priority" x="75.84" y="62.53" incLanes="5-4_0 3-4_0" intLanes=":4_0_0 :4_1_0" shape="78.97,60.97 72.57,61.29 77.14,65.77 78.22,64.35 78.58,63.57 78.83,62.75 78.95,61.88">
        <request index="0" response="00" foes="00" cont="0"/>
        <request index="1" response="00" foes="00" cont="0"/>
    </junction>
    <junction id="5" type="priority" x="74.59" y="37.69" incLanes="4-5_0 6-5_0" intLanes=":5_0_0 :5_1_0" shape="71.45,39.04 77.85,38.72 77.68,37.02 77.50,36.44 77.20,35.91 76.74,35.33 76.09,34.62">
        <request index="0" response="00" foes="00" cont="0"/>
        <request index="1" response="00" foes="00" cont="0"/>
    </junction>
    <junction id="6" type="priority" x="57.13" y="19.36" incLanes="5-6_0 7-6_0" intLanes=":6_0_0 :6_1_0" shape="55.75,22.55 60.39,18.14 59.04,17.04 58.30,16.66 57.51,16.38 56.67,16.21 55.79,16.15">
        <request index="0" response="00" foes="00" cont="0"/>
        <request index="1" response="00" foes="00" cont="0"/>
    </junction>
    <junction id="7" type="priority" x="15.58" y="19.14" incLanes="6-7_0 8-7_0" intLanes=":7_0_0 :7_1_0" shape="16.58,22.35 16.61,15.95 15.15,16.00 14.64,16.11 14.15,16.31 13.61,16.63 12.92,17.09">
        <request index="0" response="00" foes="00" cont="0"/>
        <request index="1" response="00" foes="00" cont="0"/>
    </junction>
    <junction id="8" type="priority" x="-6.14" y="34.23" incLanes="7-8_0 1-8_0" intLanes=":8_0_0 :8_1_0" shape="-2.99,35.94 -6.64,30.68 -8.12,32.06 -8.65,32.87 -9.04,33.75 -9.28,34.72 -9.38,35.75">
        <request index="0" response="00" foes="00" cont="0"/>
        <request index="1" response="00" foes="00" cont="0"/>
    </junction>

    <connection from="1-2" to="2-3" fromLane="0" toLane="0" via=":2_1_0" dir="s" state="M"/>
    <connection from="1-8" to="8-7" fromLane="0" toLane="0" via=":8_1_0" dir="l" state="M"/>
    <connection from="2-1" to="1-8" fromLane="0" toLane="0" via=":1_0_0" dir="l" state="M"/>
    <connection from="2-3" to="3-4" fromLane="0" toLane="0" via=":3_1_0" dir="r" state="M"/>
    <connection from="3-2" to="2-1" fromLane="0" toLane="0" via=":2_0_0" dir="s" state="M"/>
    <connection from="3-4" to="4-5" fromLane="0" toLane="0" via=":4_1_0" dir="r" state="M"/>
    <connection from="4-3" to="3-2" fromLane="0" toLane="0" via=":3_0_0" dir="l" state="M"/>
    <connection from="4-5" to="5-6" fromLane="0" toLane="0" via=":5_0_0" dir="s" state="M"/>
    <connection from="5-4" to="4-3" fromLane="0" toLane="0" via=":4_0_0" dir="l" state="M"/>
    <connection from="5-6" to="6-7" fromLane="0" toLane="0" via=":6_0_0" dir="r" state="M"/>
    <connection from="6-5" to="5-4" fromLane="0" toLane="0" via=":5_1_0" dir="s" state="M"/>
    <connection from="6-7" to="7-8" fromLane="0" toLane="0" via=":7_0_0" dir="s" state="M"/>
    <connection from="7-6" to="6-5" fromLane="0" toLane="0" via=":6_1_0" dir="l" state="M"/>
    <connection from="7-8" to="8-9" fromLane="0" toLane="0" via=":8_0_0" dir="r" state="M"/>
    <connection from="8-7" to="7-6" fromLane="0" toLane="0" via=":7_1_0" dir="s" state="M"/>
    <connection from="8-9" to="1-2" fromLane="0" toLane="0" via=":1_1_0" dir="r" state="M"/>

    <connection from=":1_0" to="1-8" fromLane="0" toLane="0" dir="l" state="M"/>
    <connection from=":1_1" to="1-2" fromLane="0" toLane="0" dir="r" state="M"/>
    <connection from=":2_0" to="2-1" fromLane="0" toLane="0" dir="s" state="M"/>
    <connection from=":2_1" to="2-3" fromLane="0" toLane="0" dir="s" state="M"/>
    <connection from=":3_0" to="3-2" fromLane="0" toLane="0" dir="l" state="M"/>
    <connection from=":3_1" to="3-4" fromLane="0" toLane="0" dir="r" state="M"/>
    <connection from=":4_0" to="4-3" fromLane="0" toLane="0" dir="l" state="M"/>
    <connection from=":4_1" to="4-5" fromLane="0" toLane="0" dir="r" state="M"/>
    <connection from=":5_0" to="5-6" fromLane="0" toLane="0" dir="s" state="M"/>
    <connection from=":5_1" to="5-4" fromLane="0" toLane="0" dir="s" state="M"/>
    <connection from=":6_0" to="6-7" fromLane="0" toLane="0" dir="r" state="M"/>
    <connection from=":6_1" to="6-5" fromLane="0" toLane="0" dir="l" state="M"/>
    <connection from=":7_0" to="7-8" fromLane="0" toLane="0" dir="s" state="M"/>
    <connection from=":7_1" to="7-6" fromLane="0" toLane="0" dir="s" state="M"/>
    <connection from=":8_0" to="8-9" fromLane="0" toLane="0" dir="r" state="M"/>
    <connection from=":8_1" to="8-7" fromLane="0" toLane="0" dir="l" state="M"/>

</net>
