<?xml version="1.0" encoding="UTF-8"?>

<!-- generated on 01/26/20 03:52:28 by Eclipse SUMO netedit Version 1.4.0
<configuration xmlns:xsi="http://www.w3.org/2001/XMLSchema-instance" xsi:noNamespaceSchemaLocation="http://sumo.dlr.de/xsd/netconvertConfiguration.xsd">

    <output>
        <output-file value="C:\SUMO_APP\TUTOS\DirectoryName\tst.net.xml"/>
    </output>

    <processing>
        <offset.disable-normalization value="true"/>
    </processing>

    <junctions>
        <no-turnarounds value="true"/>
    </junctions>

    <report>
        <aggregate-warnings value="5"/>
    </report>

</configuration>
-->

<net version="1.3" junctionCornerDetail="5" limitTurnSpeed="5.50" xmlns:xsi="http://www.w3.org/2001/XMLSchema-instance" xsi:noNamespaceSchemaLocation="http://sumo.dlr.de/xsd/net_file.xsd">

    <location netOffset="0.00,0.00" convBoundary="-200.00,-200.00,200.00,0.00" origBoundary="10000000000.00,10000000000.00,-10000000000.00,-10000000000.00" projParameter="!"/>

    <edge id=":a_0" function="internal">
        <lane id=":a_0_0" index="0" speed="13.89" length="27.20" shape="13.60,8.00 -13.60,8.00"/>
        <lane id=":a_0_1" index="1" speed="13.89" length="27.20" shape="13.60,4.80 -13.60,4.80"/>
    </edge>
    <edge id=":a_2" function="internal">
        <lane id=":a_2_0" index="0" speed="11.84" length="17.34" shape="13.60,4.80 4.15,3.65 -2.60,0.20 -2.74,-0.00"/>
    </edge>
    <edge id=":a_3" function="internal">
        <lane id=":a_3_0" index="0" speed="13.89" length="27.20" shape="13.60,1.60 -13.60,1.60"/>
    </edge>
    <edge id=":a_4" function="internal">
        <lane id=":a_4_0" index="0" speed="10.88" length="9.57" shape="13.60,1.60 5.55,0.65 4.24,0.00"/>
    </edge>
    <edge id=":a_5" function="internal">
        <lane id=":a_5_0" index="0" speed="10.36" length="7.98" shape="13.60,1.60 6.95,0.65 5.87,-0.00"/>
    </edge>
    <edge id=":a_6" function="internal">
        <lane id=":a_6_0" index="0" speed="3.65" length="2.34" shape="13.60,1.60 12.40,0.80 12.00,0.00"/>
    </edge>
    <edge id=":a_15" function="internal">
        <lane id=":a_15_0" index="0" speed="11.84" length="14.95" shape="-2.74,-0.00 -6.65,-5.55 -8.00,-13.60"/>
    </edge>
    <edge id=":a_16" function="internal">
        <lane id=":a_16_0" index="0" speed="10.88" length="17.57" shape="4.24,0.00 -0.20,-2.20 -3.65,-6.95 -4.80,-13.60"/>
    </edge>
    <edge id=":a_17" function="internal">
        <lane id=":a_17_0" index="0" speed="10.36" length="16.53" shape="5.87,-0.00 2.20,-2.20 -0.65,-6.95 -1.60,-13.60"/>
    </edge>
    <edge id=":a_18" function="internal">
        <lane id=":a_18_0" index="0" speed="3.65" length="2.34" shape="12.00,0.00 12.40,-0.80 13.60,-1.60"/>
    </edge>
    <edge id=":a_7" function="internal">
        <lane id=":a_7_0" index="0" speed="6.51" length="9.03" shape="8.00,-13.60 8.35,-11.15 9.40,-9.40 11.15,-8.35 13.60,-8.00"/>
    </edge>
    <edge id=":a_8" function="internal">
        <lane id=":a_8_0" index="0" speed="11.84" length="32.30" shape="4.80,-13.60 3.65,-4.15 0.20,2.60 -5.55,6.65 -13.60,8.00"/>
    </edge>
    <edge id=":a_9" function="internal">
        <lane id=":a_9_0" index="0" speed="10.88" length="27.14" shape="1.60,-13.60 0.65,-5.55 -2.20,0.20 -6.95,3.65 -13.60,4.80"/>
    </edge>
    <edge id=":a_10" function="internal">
        <lane id=":a_10_0" index="0" speed="6.51" length="9.03" shape="-13.60,-8.00 -11.15,-8.35 -9.40,-9.40 -8.35,-11.15 -8.00,-13.60"/>
    </edge>
    <edge id=":a_11" function="internal">
        <lane id=":a_11_0" index="0" speed="13.89" length="27.20" shape="-13.60,-8.00 13.60,-8.00"/>
        <lane id=":a_11_1" index="1" speed="13.89" length="27.20" shape="-13.60,-4.80 13.60,-4.80"/>
        <lane id=":a_11_2" index="2" speed="13.89" length="27.20" shape="-13.60,-1.60 13.60,-1.60"/>
    </edge>
    <edge id=":a_14" function="internal">
        <lane id=":a_14_0" index="0" speed="3.65" length="2.34" shape="-13.60,-1.60 -12.40,-0.80 -12.00,0.00"/>
    </edge>
    <edge id=":a_19" function="internal">
        <lane id=":a_19_0" index="0" speed="3.65" length="2.34" shape="-12.00,0.00 -12.40,0.80 -13.60,1.60"/>
    </edge>
    <edge id=":b_0" function="internal">
        <lane id=":b_0_0" index="0" speed="13.89" length="0.10" shape="-100.00,8.00 -100.00,8.00"/>
        <lane id=":b_0_1" index="1" speed="13.89" length="0.10" shape="-100.00,4.80 -100.00,4.80"/>
        <lane id=":b_0_2" index="2" speed="13.89" length="0.10" shape="-100.00,1.60 -100.00,1.60"/>
    </edge>
    <edge id=":b_3" function="internal">
        <lane id=":b_3_0" index="0" speed="13.89" length="0.10" shape="-100.00,-8.00 -100.00,-8.00"/>
        <lane id=":b_3_1" index="1" speed="13.89" length="0.10" shape="-100.00,-4.80 -100.00,-4.80"/>
        <lane id=":b_3_2" index="2" speed="13.89" length="0.10" shape="-100.00,-1.60 -100.00,-1.60"/>
    </edge>
    <edge id=":c_0" function="internal">
        <lane id=":c_0_0" index="0" speed="13.89" length="9.22" shape="104.00,1.60 101.36,2.60 100.05,4.80 98.71,7.00 96.00,8.00"/>
        <lane id=":c_0_1" index="1" speed="13.89" length="9.22" shape="104.00,1.60 101.54,2.10 100.00,3.20 98.46,4.30 96.00,4.80"/>
        <lane id=":c_0_2" index="2" speed="13.89" length="9.22" shape="104.00,1.60 96.00,1.60"/>
    </edge>
    <edge id=":c_3" function="internal">
        <lane id=":c_3_0" index="0" speed="13.89" length="10.85" shape="96.00,-8.00 98.71,-7.00 100.05,-4.80 101.36,-2.60 104.00,-1.60"/>
    </edge>
    <edge id=":d_0" function="internal">
        <lane id=":d_0_0" index="0" speed="4.77" length="9.60" shape="-8.00,-200.00 1.60,-199.99"/>
    </edge>
    <edge id=":d_1" function="internal">
        <lane id=":d_1_0" index="0" speed="4.77" length="9.60" shape="-1.60,-200.01 8.00,-200.00"/>
    </edge>
    <edge id=":d_2" function="internal">
        <lane id=":d_2_0" index="0" speed="4.08" length="6.40" shape="-1.60,-200.01 4.80,-200.00"/>
    </edge>
    <edge id=":d_3" function="internal">
        <lane id=":d_3_0" index="0" speed="3.24" length="3.20" shape="-1.60,-200.01 1.60,-200.00"/>
    </edge>

    <edge id="-gneE0" from="b" to="e" priority="-1">
        <lane id="-gneE0_0" index="0" speed="13.89" length="100.00" shape="-100.00,8.00 -200.00,8.00"/>
        <lane id="-gneE0_1" index="1" speed="13.89" length="100.00" shape="-100.00,4.80 -200.00,4.80"/>
        <lane id="-gneE0_2" index="2" speed="13.89" length="100.00" shape="-100.00,1.60 -200.00,1.60"/>
    </edge>
    <edge id="-gneE1" from="a" to="b" priority="-1">
        <lane id="-gneE1_0" index="0" speed="13.89" length="86.40" shape="-13.60,8.00 -100.00,8.00"/>
        <lane id="-gneE1_1" index="1" speed="13.89" length="86.40" shape="-13.60,4.80 -100.00,4.80"/>
        <lane id="-gneE1_2" index="2" speed="13.89" length="86.40" shape="-13.60,1.60 -100.00,1.60"/>
    </edge>
    <edge id="-gneE2" from="c" to="a" priority="-1">
        <lane id="-gneE2_0" index="0" speed="13.89" length="82.40" shape="96.00,8.00 13.60,8.00"/>
        <lane id="-gneE2_1" index="1" speed="13.89" length="82.40" shape="96.00,4.80 13.60,4.80"/>
        <lane id="-gneE2_2" index="2" speed="13.89" length="82.40" shape="96.00,1.60 13.60,1.60"/>
    </edge>
    <edge id="-gneE4" from="f" to="c" priority="-1">
        <lane id="-gneE4_0" index="0" speed="13.89" length="96.00" shape="200.00,1.60 104.00,1.60"/>
    </edge>
    <edge id="-gneE5" from="d" to="a" priority="-1">
        <lane id="-gneE5_0" index="0" speed="13.89" length="186.40" shape="8.00,-200.00 8.00,-13.60"/>
        <lane id="-gneE5_1" index="1" speed="13.89" length="186.40" shape="4.80,-200.00 4.80,-13.60"/>
        <lane id="-gneE5_2" index="2" speed="13.89" length="186.40" shape="1.60,-200.00 1.60,-13.60"/>
    </edge>
    <edge id="-gneE6" from="g" to="d" priority="-1">
        <lane id="-gneE6_0" index="0" speed="13.89" length="111.64" shape="-2.40,-88.37 -1.60,-200.01"/>
    </edge>
    <edge id="gneE0" from="e" to="b" priority="-1">
        <lane id="gneE0_0" index="0" speed="13.89" length="100.00" shape="-200.00,-8.00 -100.00,-8.00"/>
        <lane id="gneE0_1" index="1" speed="13.89" length="100.00" shape="-200.00,-4.80 -100.00,-4.80"/>
        <lane id="gneE0_2" index="2" speed="13.89" length="100.00" shape="-200.00,-1.60 -100.00,-1.60"/>
    </edge>
    <edge id="gneE1" from="b" to="a" priority="-1">
        <lane id="gneE1_0" index="0" speed="13.89" length="86.40" shape="-100.00,-8.00 -13.60,-8.00"/>
        <lane id="gneE1_1" index="1" speed="13.89" length="86.40" shape="-100.00,-4.80 -13.60,-4.80"/>
        <lane id="gneE1_2" index="2" speed="13.89" length="86.40" shape="-100.00,-1.60 -13.60,-1.60"/>
    </edge>
    <edge id="gneE2" from="a" to="c" priority="-1">
        <lane id="gneE2_0" index="0" speed="13.89" length="82.40" shape="13.60,-8.00 96.00,-8.00"/>
        <lane id="gneE2_1" index="1" speed="13.89" length="82.40" shape="13.60,-4.80 96.00,-4.80"/>
        <lane id="gneE2_2" index="2" speed="13.89" length="82.40" shape="13.60,-1.60 96.00,-1.60"/>
    </edge>
    <edge id="gneE4" from="c" to="f" priority="-1">
        <lane id="gneE4_0" index="0" speed="13.89" length="96.00" shape="104.00,-1.60 200.00,-1.60"/>
    </edge>
    <edge id="gneE5" from="a" to="d" priority="-1">
        <lane id="gneE5_0" index="0" speed="13.89" length="186.40" shape="-8.00,-13.60 -8.00,-200.00"/>
        <lane id="gneE5_1" index="1" speed="13.89" length="186.40" shape="-4.80,-13.60 -4.80,-200.00"/>
        <lane id="gneE5_2" index="2" speed="13.89" length="186.40" shape="-1.60,-13.60 -1.60,-200.00"/>
    </edge>
    <edge id="gneE6" from="d" to="g" priority="-1">
        <lane id="gneE6_0" index="0" speed="13.89" length="111.64" shape="1.60,-199.99 0.80,-88.35"/>
    </edge>

    <tlLogic id="a" type="static" programID="0" offset="0">
        <phase duration="42" state="GGgGgggrrrGGGGg"/>
        <phase duration="3"  state="yyyyyyyrrryyyyy"/>
        <phase duration="42" state="rrrrrrrGGGGrrrr"/>
        <phase duration="3"  state="rrrrrrryyyyrrrr"/>
    </tlLogic>

    <junction id="a" type="traffic_light" x="0.00" y="0.00" incLanes="-gneE2_0 -gneE2_1 -gneE2_2 -gneE5_0 -gneE5_1 -gneE5_2 gneE1_0 gneE1_1 gneE1_2" intLanes=":a_0_0 :a_0_1 :a_15_0 :a_3_0 :a_16_0 :a_17_0 :a_18_0 :a_7_0 :a_8_0 :a_9_0 :a_10_0 :a_11_0 :a_11_1 :a_11_2 :a_19_0" shape="13.60,9.60 13.60,-9.60 11.38,-10.04 10.60,-10.60 10.04,-11.38 9.71,-12.38 9.60,-13.60 -9.60,-13.60 -10.04,-11.38 -10.60,-10.60 -11.38,-10.04 -12.38,-9.71 -13.60,-9.60 -13.60,9.60">
        <request index="0"  response="000000000000000" foes="100001100000000" cont="0"/>
        <request index="1"  response="000000000000000" foes="100001100000000" cont="0"/>
        <request index="2"  response="011110000001000" foes="011111100001000" cont="1"/>
        <request index="3"  response="000000000000000" foes="100001100000100" cont="0"/>
        <request index="4"  response="011110000000000" foes="011111100000000" cont="1"/>
        <request index="5"  response="011110000000000" foes="011111100000000" cont="1"/>
        <request index="6"  response="011100000000000" foes="011100000000000" cont="1"/>
        <request index="7"  response="011100000000000" foes="011100000000000" cont="0"/>
        <request index="8"  response="011100000111111" foes="011100000111111" cont="0"/>
        <request index="9"  response="011100000111111" foes="011100000111111" cont="0"/>
        <request index="10" response="000000000000000" foes="000000000110100" cont="0"/>
        <request index="11" response="000000000000000" foes="000001111110100" cont="0"/>
        <request index="12" response="000000000000000" foes="000001111110100" cont="0"/>
        <request index="13" response="000000000000000" foes="000001111110100" cont="0"/>
        <request index="14" response="000000000001011" foes="000000000001011" cont="1"/>
    </junction>
    <junction id="b" type="priority" x="-100.00" y="0.00" incLanes="-gneE1_0 -gneE1_1 -gneE1_2 gneE0_0 gneE0_1 gneE0_2" intLanes=":b_0_0 :b_0_1 :b_0_2 :b_3_0 :b_3_1 :b_3_2" shape="-100.00,9.60 -100.00,-9.60 -100.00,9.60">
        <request index="0" response="000000" foes="000000" cont="0"/>
        <request index="1" response="000000" foes="000000" cont="0"/>
        <request index="2" response="000000" foes="000000" cont="0"/>
        <request index="3" response="000000" foes="000000" cont="0"/>
        <request index="4" response="000000" foes="000000" cont="0"/>
        <request index="5" response="000000" foes="000000" cont="0"/>
    </junction>
    <junction id="c" type="priority" x="100.00" y="0.00" incLanes="-gneE4_0 gneE2_0 gneE2_1 gneE2_2" intLanes=":c_0_0 :c_0_1 :c_0_2 :c_3_0" shape="104.00,3.20 104.00,-3.20 101.98,-3.67 100.79,-4.86 99.21,-7.94 98.02,-9.13 96.00,-9.60 96.00,9.60 98.02,9.13 99.21,7.94 100.79,4.86 101.98,3.67">
        <request index="0" response="0000" foes="0000" cont="0"/>
        <request index="1" response="0000" foes="0000" cont="0"/>
        <request index="2" response="0000" foes="0000" cont="0"/>
        <request index="3" response="0000" foes="0000" cont="0"/>
    </junction>
    <junction id="d" type="priority" x="0.00" y="-200.00" incLanes="gneE5_0 gneE5_1 gneE5_2 -gneE6_0" intLanes=":d_0_0 :d_1_0 :d_2_0 :d_3_0" shape="-9.60,-200.00 9.60,-200.00 -3.20,-200.02 3.20,-199.98">
        <request index="0" response="0000" foes="0000" cont="0"/>
        <request index="1" response="0000" foes="0000" cont="0"/>
        <request index="2" response="0000" foes="0000" cont="0"/>
        <request index="3" response="0000" foes="0000" cont="0"/>
    </junction>
    <junction id="e" type="dead_end" x="-200.00" y="0.00" incLanes="-gneE0_0 -gneE0_1 -gneE0_2" intLanes="" shape="-200.00,0.00 -200.00,9.60 -200.00,0.00"/>
    <junction id="f" type="dead_end" x="200.00" y="0.00" incLanes="gneE4_0" intLanes="" shape="200.00,0.00 200.00,-3.20 200.00,0.00"/>
    <junction id="g" type="dead_end" x="-0.80" y="-88.36" incLanes="gneE6_0" intLanes="" shape="-0.80,-88.36 2.40,-88.34 -0.80,-88.36"/>

    <junction id=":a_15_0" type="internal" x="-2.74" y="-0.00" incLanes=":a_2_0 gneE1_0 gneE1_1 gneE1_2" intLanes=":a_3_0 :a_8_0 :a_9_0 :a_10_0 :a_11_0 :a_11_1 :a_11_2"/>
    <junction id=":a_16_0" type="internal" x="4.24" y="0.00" incLanes=":a_4_0 gneE1_0 gneE1_1 gneE1_2" intLanes=":a_8_0 :a_9_0 :a_10_0 :a_11_0 :a_11_1 :a_11_2"/>
    <junction id=":a_17_0" type="internal" x="5.87" y="-0.00" incLanes=":a_5_0 gneE1_0 gneE1_1 gneE1_2" intLanes=":a_8_0 :a_9_0 :a_10_0 :a_11_0 :a_11_1 :a_11_2"/>
    <junction id=":a_18_0" type="internal" x="12.00" y="0.00" incLanes=":a_6_0 -gneE5_0 gneE1_0 gneE1_1 gneE1_2" intLanes=":a_7_0 :a_11_0 :a_11_1 :a_11_2"/>
    <junction id=":a_19_0" type="internal" x="-12.00" y="0.00" incLanes=":a_14_0 -gneE2_0 -gneE2_1 -gneE2_2 -gneE5_1 -gneE5_2" intLanes=":a_0_0 :a_0_1 :a_3_0 :a_8_0 :a_9_0"/>

    <connection from="-gneE1" to="-gneE0" fromLane="0" toLane="0" via=":b_0_0" dir="s" state="M"/>
    <connection from="-gneE1" to="-gneE0" fromLane="1" toLane="1" via=":b_0_1" dir="s" state="M"/>
    <connection from="-gneE1" to="-gneE0" fromLane="2" toLane="2" via=":b_0_2" dir="s" state="M"/>
    <connection from="-gneE2" to="-gneE1" fromLane="0" toLane="0" via=":a_0_0" tl="a" linkIndex="0" dir="s" state="O"/>
    <connection from="-gneE2" to="-gneE1" fromLane="1" toLane="1" via=":a_0_1" tl="a" linkIndex="1" dir="s" state="O"/>
    <connection from="-gneE2" to="gneE5" fromLane="1" toLane="0" via=":a_2_0" tl="a" linkIndex="2" dir="l" state="o"/>
    <connection from="-gneE2" to="-gneE1" fromLane="2" toLane="2" via=":a_3_0" tl="a" linkIndex="3" dir="s" state="O"/>
    <connection from="-gneE2" to="gneE5" fromLane="2" toLane="1" via=":a_4_0" tl="a" linkIndex="4" dir="l" state="o"/>
    <connection from="-gneE2" to="gneE5" fromLane="2" toLane="2" via=":a_5_0" tl="a" linkIndex="5" dir="l" state="o"/>
    <connection from="-gneE2" to="gneE2" fromLane="2" toLane="2" via=":a_6_0" tl="a" linkIndex="6" dir="t" state="o"/>
    <connection from="-gneE4" to="-gneE2" fromLane="0" toLane="0" via=":c_0_0" dir="s" state="M"/>
    <connection from="-gneE4" to="-gneE2" fromLane="0" toLane="1" via=":c_0_1" dir="s" state="M"/>
    <connection from="-gneE4" to="-gneE2" fromLane="0" toLane="2" via=":c_0_2" dir="s" state="M"/>
    <connection from="-gneE5" to="gneE2" fromLane="0" toLane="0" via=":a_7_0" tl="a" linkIndex="7" dir="r" state="o"/>
    <connection from="-gneE5" to="-gneE1" fromLane="1" toLane="0" via=":a_8_0" tl="a" linkIndex="8" dir="l" state="o"/>
    <connection from="-gneE5" to="-gneE1" fromLane="2" toLane="1" via=":a_9_0" tl="a" linkIndex="9" dir="l" state="o"/>
    <connection from="-gneE6" to="-gneE5" fromLane="0" toLane="0" via=":d_1_0" dir="l" state="M"/>
    <connection from="-gneE6" to="-gneE5" fromLane="0" toLane="1" via=":d_2_0" dir="l" state="M"/>
    <connection from="-gneE6" to="-gneE5" fromLane="0" toLane="2" via=":d_3_0" dir="l" state="M"/>
    <connection from="gneE0" to="gneE1" fromLane="0" toLane="0" via=":b_3_0" dir="s" state="M"/>
    <connection from="gneE0" to="gneE1" fromLane="1" toLane="1" via=":b_3_1" dir="s" state="M"/>
    <connection from="gneE0" to="gneE1" fromLane="2" toLane="2" via=":b_3_2" dir="s" state="M"/>
    <connection from="gneE1" to="gneE5" fromLane="0" toLane="0" via=":a_10_0" tl="a" linkIndex="10" dir="r" state="O"/>
    <connection from="gneE1" to="gneE2" fromLane="0" toLane="0" via=":a_11_0" tl="a" linkIndex="11" dir="s" state="O"/>
    <connection from="gneE1" to="gneE2" fromLane="1" toLane="1" via=":a_11_1" tl="a" linkIndex="12" dir="s" state="O"/>
    <connection from="gneE1" to="gneE2" fromLane="2" toLane="2" via=":a_11_2" tl="a" linkIndex="13" dir="s" state="O"/>
    <connection from="gneE1" to="-gneE1" fromLane="2" toLane="2" via=":a_14_0" tl="a" linkIndex="14" dir="t" state="o"/>
    <connection from="gneE2" to="gneE4" fromLane="0" toLane="0" via=":c_3_0" dir="s" state="M"/>
    <connection from="gneE5" to="gneE6" fromLane="0" toLane="0" via=":d_0_0" dir="r" state="M"/>

    <connection from=":a_0" to="-gneE1" fromLane="0" toLane="0" dir="s" state="M"/>
    <connection from=":a_0" to="-gneE1" fromLane="1" toLane="1" dir="s" state="M"/>
    <connection from=":a_2" to="gneE5" fromLane="0" toLane="0" via=":a_15_0" dir="l" state="m"/>
    <connection from=":a_15" to="gneE5" fromLane="0" toLane="0" dir="l" state="M"/>
    <connection from=":a_3" to="-gneE1" fromLane="0" toLane="2" dir="s" state="M"/>
    <connection from=":a_4" to="gneE5" fromLane="0" toLane="1" via=":a_16_0" dir="l" state="m"/>
    <connection from=":a_16" to="gneE5" fromLane="0" toLane="1" dir="l" state="M"/>
    <connection from=":a_5" to="gneE5" fromLane="0" toLane="2" via=":a_17_0" dir="l" state="m"/>
    <connection from=":a_17" to="gneE5" fromLane="0" toLane="2" dir="l" state="M"/>
    <connection from=":a_6" to="gneE2" fromLane="0" toLane="2" via=":a_18_0" dir="t" state="m"/>
    <connection from=":a_18" to="gneE2" fromLane="0" toLane="2" dir="t" state="M"/>
    <connection from=":a_7" to="gneE2" fromLane="0" toLane="0" dir="r" state="M"/>
    <connection from=":a_8" to="-gneE1" fromLane="0" toLane="0" dir="l" state="M"/>
    <connection from=":a_9" to="-gneE1" fromLane="0" toLane="1" dir="l" state="M"/>
    <connection from=":a_10" to="gneE5" fromLane="0" toLane="0" dir="r" state="M"/>
    <connection from=":a_11" to="gneE2" fromLane="0" toLane="0" dir="s" state="M"/>
    <connection from=":a_11" to="gneE2" fromLane="1" toLane="1" dir="s" state="M"/>
    <connection from=":a_11" to="gneE2" fromLane="2" toLane="2" dir="s" state="M"/>
    <connection from=":a_14" to="-gneE1" fromLane="0" toLane="2" via=":a_19_0" dir="t" state="m"/>
    <connection from=":a_19" to="-gneE1" fromLane="0" toLane="2" dir="t" state="M"/>
    <connection from=":b_0" to="-gneE0" fromLane="0" toLane="0" dir="s" state="M"/>
    <connection from=":b_0" to="-gneE0" fromLane="1" toLane="1" dir="s" state="M"/>
    <connection from=":b_0" to="-gneE0" fromLane="2" toLane="2" dir="s" state="M"/>
    <connection from=":b_3" to="gneE1" fromLane="0" toLane="0" dir="s" state="M"/>
    <connection from=":b_3" to="gneE1" fromLane="1" toLane="1" dir="s" state="M"/>
    <connection from=":b_3" to="gneE1" fromLane="2" toLane="2" dir="s" state="M"/>
    <connection from=":c_0" to="-gneE2" fromLane="0" toLane="0" dir="s" state="M"/>
    <connection from=":c_0" to="-gneE2" fromLane="1" toLane="1" dir="s" state="M"/>
    <connection from=":c_0" to="-gneE2" fromLane="2" toLane="2" dir="s" state="M"/>
    <connection from=":c_3" to="gneE4" fromLane="0" toLane="0" dir="s" state="M"/>
    <connection from=":d_0" to="gneE6" fromLane="0" toLane="0" dir="r" state="M"/>
    <connection from=":d_1" to="-gneE5" fromLane="0" toLane="0" dir="l" state="M"/>
    <connection from=":d_2" to="-gneE5" fromLane="0" toLane="1" dir="l" state="M"/>
    <connection from=":d_3" to="-gneE5" fromLane="0" toLane="2" dir="l" state="M"/>

</net>
