<?xml version="1.0" encoding="UTF-8"?>

<!-- generated on 01/26/20 03:52:48 by Eclipse SUMO netedit Version 1.4.0
<configuration xmlns:xsi="http://www.w3.org/2001/XMLSchema-instance" xsi:noNamespaceSchemaLocation="http://sumo.dlr.de/xsd/netconvertConfiguration.xsd">

    <output>
        <output-file value="C:\SUMO_APP\TUTOS\DirectoryName\tst.net.xml"/>
    </output>

    <processing>
        <offset.disable-normalization value="true"/>
    </processing>

    <junctions>
        <no-turnarounds value="true"/>
    </junctions>

    <netedit>
        <route-files value="C:\SUMO_APP\TUTOS\DirectoryName\tst.rou.xml"/>
    </netedit>

    <report>
        <aggregate-warnings value="5"/>
    </report>

</configuration>
-->

<routes xmlns:xsi="http://www.w3.org/2001/XMLSchema-instance" xsi:noNamespaceSchemaLocation="http://sumo.dlr.de/xsd/routes_file.xsd">
    <route edges="gneE0 gneE1 gneE5" color="yellow" id="route_0"/>
    <route edges="-gneE5 -gneE1 -gneE0" color="yellow" id="route_1"/>
    <route edges="-gneE2 -gneE1 -gneE0" color="yellow" id="route_2"/>
    <route edges="-gneE2 gneE5" color="yellow" id="route_3"/>
</routes>
