<?xml version="1.0" encoding="UTF-8"?>

<routes xmlns:xsi="http://www.w3.org/2001/XMLSchema-instance" xsi:noNamespaceSchemaLocation="http://sumo.dlr.de/xsd/routes_file.xsd">
    <trip id="0" depart="2488.08" from="Ariana-Tunis" to="Benarous-Rades" fromTaz="1" toTaz="2" departLane="free" departSpeed="max"/>
</routes>
