<routes>
  <trip id="t" depart="0" fromTaz="Ariana-Tuniss" toTaz="Benarous-Radess"/>
</routes>