<?xml version="1.0" encoding="UTF-8"?>

<!-- generated on 05/18/20 02:58:05 by Eclipse SUMO GUI Version 1.5.0
-->

<configuration xmlns:xsi="http://www.w3.org/2001/XMLSchema-instance" xsi:noNamespaceSchemaLocation="http://sumo.dlr.de/xsd/sumoConfiguration.xsd">

<input>
	<net-file value="Carte_Villes.net.xml"/>
	<route-files value="route.rou.xml"/>
	<additional-files value="taz.add.xml"/>
	<weight-files value="weight.add.xml"/>
</input>

</configuration>
