<additional>
<tazs>
<taz id="Ariana-Tuniss" edges="Ariana-Tunis"></taz>
<taz id="Benarous-Radess" edges="Benarous-Rades"></taz>
</tazs> 
</additional>