<?xml version="1.0" encoding="UTF-8"?>

<!-- generated on 01/28/20 22:23:35 by Eclipse SUMO netedit Version 1.4.0
<configuration xmlns:xsi="http://www.w3.org/2001/XMLSchema-instance" xsi:noNamespaceSchemaLocation="http://sumo.dlr.de/xsd/netconvertConfiguration.xsd">

    <input>
        <sumo-net-file value="circles.net.xml"/>
    </input>

    <output>
        <output-file value="circles.net.xml"/>
    </output>

    <processing>
        <geometry.min-radius.fix.railways value="false"/>
        <geometry.max-grade.fix value="false"/>
        <offset.disable-normalization value="true"/>
        <lefthand value="false"/>
    </processing>

    <junctions>
        <no-turnarounds value="true"/>
        <junctions.corner-detail value="5"/>
        <junctions.limit-turn-speed value="5.5"/>
        <rectangular-lane-cut value="false"/>
    </junctions>

    <pedestrian>
        <walkingareas value="false"/>
    </pedestrian>

    <report>
        <aggregate-warnings value="5"/>
    </report>

</configuration>
-->

<net version="1.3" junctionCornerDetail="5" limitTurnSpeed="5.50" xmlns:xsi="http://www.w3.org/2001/XMLSchema-instance" xsi:noNamespaceSchemaLocation="http://sumo.dlr.de/xsd/net_file.xsd">

    <location netOffset="0.00,0.00" convBoundary="-6.81,5.29,101.55,87.88" origBoundary="-10000000000.00,-10000000000.00,10000000000.00,10000000000.00" projParameter="!"/>

    <edge id=":gneJ0_0" function="internal">
        <lane id=":gneJ0_0_0" index="0" speed="4.33" length="1.12" shape="0.52,63.46 0.59,63.79 0.68,64.00 0.83,64.18 1.08,64.40"/>
    </edge>
    <edge id=":gneJ1_0" function="internal">
        <lane id=":gneJ1_0_0" index="0" speed="4.33" length="1.13" shape="27.22,85.91 27.48,86.11 27.69,86.22 27.92,86.27 28.25,86.27"/>
    </edge>
    <edge id=":gneJ2_0" function="internal">
        <lane id=":gneJ2_0_0" index="0" speed="4.11" length="1.41" shape="77.39,85.91 77.75,85.87 78.08,85.76 78.37,85.58 78.62,85.32"/>
    </edge>
    <edge id=":gneJ3_0" function="internal">
        <lane id=":gneJ3_0_0" index="0" speed="4.23" length="1.26" shape="99.49,59.68 99.71,59.39 99.83,59.15 99.86,58.89 99.84,58.53"/>
    </edge>
    <edge id=":gneJ4_0" function="internal">
        <lane id=":gneJ4_0_0" index="0" speed="4.29" length="1.18" shape="97.43,32.19 97.39,31.85 97.31,31.61 97.17,31.41 96.93,31.17"/>
    </edge>
    <edge id=":gneJ5_0" function="internal">
        <lane id=":gneJ5_0_0" index="0" speed="4.27" length="1.21" shape="71.81,7.70 71.54,7.47 71.33,7.34 71.08,7.28 70.73,7.27"/>
    </edge>
    <edge id=":gneJ6_0" function="internal">
        <lane id=":gneJ6_0_0" index="0" speed="4.29" length="1.18" shape="27.20,6.90 26.85,6.91 26.62,6.96 26.40,7.07 26.14,7.29"/>
    </edge>
    <edge id=":gneJ7_0" function="internal">
        <lane id=":gneJ7_0_0" index="0" speed="4.02" length="1.68" shape="-4.37,33.88 -4.66,34.20 -4.85,34.56 -4.92,34.95 -4.89,35.39"/>
    </edge>

    <edge id="gneE0" from="gneJ0" to="gneJ1" priority="-1">
        <lane id="gneE0_0" index="0" speed="13.89" length="33.85" shape="1.08,64.40 27.22,85.91"/>
    </edge>
    <edge id="gneE1" from="gneJ1" to="gneJ2" priority="-1">
        <lane id="gneE1_0" index="0" speed="13.89" length="49.14" shape="28.25,86.27 77.39,85.91"/>
    </edge>
    <edge id="gneE2" from="gneJ2" to="gneJ3" priority="-1">
        <lane id="gneE2_0" index="0" speed="13.89" length="33.06" shape="78.62,85.32 99.49,59.68"/>
    </edge>
    <edge id="gneE3" from="gneJ3" to="gneJ4" priority="-1">
        <lane id="gneE3_0" index="0" speed="13.89" length="26.45" shape="99.84,58.53 97.43,32.19"/>
    </edge>
    <edge id="gneE4" from="gneJ4" to="gneJ5" priority="-1">
        <lane id="gneE4_0" index="0" speed="13.89" length="34.37" shape="96.93,31.17 71.81,7.70"/>
    </edge>
    <edge id="gneE5" from="gneJ5" to="gneJ6" priority="-1">
        <lane id="gneE5_0" index="0" speed="13.89" length="43.53" shape="70.73,7.27 27.20,6.90"/>
    </edge>
    <edge id="gneE6" from="gneJ6" to="gneJ7" priority="-1">
        <lane id="gneE6_0" index="0" speed="13.89" length="40.46" shape="26.14,7.29 -4.37,33.88"/>
    </edge>
    <edge id="gneE7" from="gneJ7" to="gneJ0" priority="-1">
        <lane id="gneE7_0" index="0" speed="13.89" length="28.60" shape="-4.89,35.39 0.52,63.46"/>
    </edge>

    <junction id="gneJ0" type="priority" x="-0.83" y="64.90" incLanes="gneE7_0" intLanes=":gneJ0_0_0" shape="0.06,65.63 2.09,63.16 -1.05,63.77 -0.86,64.57 -0.73,64.84 -0.55,65.08 -0.30,65.33">
        <request index="0" response="0" foes="0" cont="0"/>
    </junction>
    <junction id="gneJ1" type="priority" x="27.10" y="87.88" incLanes="gneE0_0" intLanes=":gneJ1_0_0" shape="28.26,87.87 28.24,84.67 26.20,87.14 26.87,87.64 27.14,87.77 27.43,87.84 27.79,87.87">
        <request index="0" response="0" foes="0" cont="0"/>
    </junction>
    <junction id="gneJ2" type="priority" x="78.91" y="87.50" incLanes="gneE1_0" intLanes=":gneJ2_0_0" shape="79.86,86.33 77.38,84.31 77.40,87.51 78.35,87.38 78.77,87.21 79.17,86.98 79.53,86.69">
        <request index="0" response="0" foes="0" cont="0"/>
    </junction>
    <junction id="gneJ3" type="priority" x="101.55" y="59.68" incLanes="gneE2_0" intLanes=":gneJ3_0_0" shape="101.43,58.38 98.24,58.67 100.73,60.69 101.27,59.94 101.41,59.64 101.47,59.31 101.47,58.90">
        <request index="0" response="0" foes="0" cont="0"/>
    </junction>
    <junction id="gneJ4" type="priority" x="98.91" y="30.83" incLanes="gneE3_0" intLanes=":gneJ4_0_0" shape="95.83,32.34 99.02,32.04 98.90,31.18 98.79,30.89 98.63,30.62 98.38,30.34 98.02,30.00">
        <request index="0" response="0" foes="0" cont="0"/>
    </junction>
    <junction id="gneJ5" type="priority" x="71.99" y="5.68" incLanes="gneE4_0" intLanes=":gneJ5_0_0" shape="70.72,8.87 72.90,6.53 72.22,5.96 71.94,5.81 71.63,5.72 71.25,5.68 70.74,5.67">
        <request index="0" response="0" foes="0" cont="0"/>
    </junction>
    <junction id="gneJ6" type="priority" x="26.00" y="5.29" incLanes="gneE5_0" intLanes=":gneJ6_0_0" shape="27.19,8.50 27.21,5.30 26.35,5.33 26.04,5.41 25.76,5.55 25.46,5.77 25.08,6.09">
        <request index="0" response="0" foes="0" cont="0"/>
    </junction>
    <junction id="gneJ7" type="priority" x="-6.81" y="33.88" incLanes="gneE6_0" intLanes=":gneJ7_0_0" shape="-6.46,35.69 -3.32,35.08 -5.42,32.67 -6.15,33.54 -6.38,34.03 -6.50,34.55 -6.53,35.10">
        <request index="0" response="0" foes="0" cont="0"/>
    </junction>

    <connection from="gneE0" to="gneE1" fromLane="0" toLane="0" via=":gneJ1_0_0" dir="s" state="M"/>
    <connection from="gneE1" to="gneE2" fromLane="0" toLane="0" via=":gneJ2_0_0" dir="r" state="M"/>
    <connection from="gneE2" to="gneE3" fromLane="0" toLane="0" via=":gneJ3_0_0" dir="r" state="M"/>
    <connection from="gneE3" to="gneE4" fromLane="0" toLane="0" via=":gneJ4_0_0" dir="s" state="M"/>
    <connection from="gneE4" to="gneE5" fromLane="0" toLane="0" via=":gneJ5_0_0" dir="s" state="M"/>
    <connection from="gneE5" to="gneE6" fromLane="0" toLane="0" via=":gneJ6_0_0" dir="s" state="M"/>
    <connection from="gneE6" to="gneE7" fromLane="0" toLane="0" via=":gneJ7_0_0" dir="r" state="M"/>
    <connection from="gneE7" to="gneE0" fromLane="0" toLane="0" via=":gneJ0_0_0" dir="s" state="M"/>

    <connection from=":gneJ0_0" to="gneE0" fromLane="0" toLane="0" dir="s" state="M"/>
    <connection from=":gneJ1_0" to="gneE1" fromLane="0" toLane="0" dir="s" state="M"/>
    <connection from=":gneJ2_0" to="gneE2" fromLane="0" toLane="0" dir="r" state="M"/>
    <connection from=":gneJ3_0" to="gneE3" fromLane="0" toLane="0" dir="r" state="M"/>
    <connection from=":gneJ4_0" to="gneE4" fromLane="0" toLane="0" dir="s" state="M"/>
    <connection from=":gneJ5_0" to="gneE5" fromLane="0" toLane="0" dir="s" state="M"/>
    <connection from=":gneJ6_0" to="gneE6" fromLane="0" toLane="0" dir="s" state="M"/>
    <connection from=":gneJ7_0" to="gneE7" fromLane="0" toLane="0" dir="r" state="M"/>

</net>
