<additional>
    <edgeData id="vehData" file="ok.xml"/>
</additional>
