<?xml version="1.0" encoding="UTF-8"?>

<!-- generated on 05/18/20 01:33:09 by Eclipse SUMO duarouter Version 1.5.0
<configuration xmlns:xsi="http://www.w3.org/2001/XMLSchema-instance" xsi:noNamespaceSchemaLocation="http://sumo.dlr.de/xsd/duarouterConfiguration.xsd">

    <input>
        <net-file value="Carte_Villes.net.xml"/>
        <route-files value="Trajets.odtrips.xml"/>
        <weight-attribute value="traveltime"/>
    </input>

    <output>
        <output-file value="route.rou.xml"/>
        <alternatives-output value="route.rou.alt.xml"/>
    </output>

    <report>
        <xml-validation value="never"/>
        <no-step-log value="true"/>
    </report>

</configuration>
-->

<routes xmlns:xsi="http://www.w3.org/2001/XMLSchema-instance" xsi:noNamespaceSchemaLocation="http://sumo.dlr.de/xsd/routes_file.xsd">
    <vehicle id="0" depart="0" departLane="free" departSpeed="max" fromTaz="1" toTaz="2">
        <route edges="Ariana-Tunis Tunis-Bardo Bardo-Benarous Benarous-Rades"/>
    </vehicle>
</routes>
