<?xml version="1.0" encoding="UTF-8"?>

<!-- generated on 01/28/20 05:39:28 by Eclipse SUMO netedit Version 1.4.0
<configuration xmlns:xsi="http://www.w3.org/2001/XMLSchema-instance" xsi:noNamespaceSchemaLocation="http://sumo.dlr.de/xsd/netconvertConfiguration.xsd">

    <output>
        <output-file value="C:\SUMO_APP\TUTOS\Driving_in_Circles\tst7\circle.net.xml"/>
    </output>

    <processing>
        <offset.disable-normalization value="true"/>
    </processing>

    <junctions>
        <no-turnarounds value="true"/>
    </junctions>

    <report>
        <aggregate-warnings value="5"/>
    </report>

</configuration>
-->

<net version="1.3" junctionCornerDetail="5" limitTurnSpeed="5.50" xmlns:xsi="http://www.w3.org/2001/XMLSchema-instance" xsi:noNamespaceSchemaLocation="http://sumo.dlr.de/xsd/net_file.xsd">

    <location netOffset="0.00,0.00" convBoundary="-2.86,53.25,51.28,95.37" origBoundary="10000000000.00,10000000000.00,-10000000000.00,-10000000000.00" projParameter="!"/>

    <edge id=":1_0" function="internal">
        <lane id=":1_0_0" index="0" speed="11.30" length="11.44" shape="18.84,96.97 15.64,96.81 13.20,96.20 11.03,94.94 8.63,92.82"/>
    </edge>
    <edge id=":1_1" function="internal">
        <lane id=":1_1_0" index="0" speed="11.30" length="11.44" shape="18.84,96.97 15.64,96.81 13.20,96.20 11.03,94.94 8.63,92.82"/>
    </edge>
    <edge id=":1_2" function="internal">
        <lane id=":1_2_0" index="0" speed="3.24" length="3.20" shape="18.84,96.97 18.84,93.77"/>
    </edge>
    <edge id=":1_3" function="internal">
        <lane id=":1_3_0" index="0" speed="11.30" length="11.44" shape="18.84,96.97 15.64,96.81 13.20,96.20 11.03,94.94 8.63,92.82"/>
    </edge>
    <edge id=":1_4" function="internal">
        <lane id=":1_4_0" index="0" speed="11.30" length="11.44" shape="18.84,96.97 15.64,96.81 13.20,96.20 11.03,94.94 8.63,92.82"/>
    </edge>
    <edge id=":1_5" function="internal">
        <lane id=":1_5_0" index="0" speed="3.24" length="3.20" shape="18.84,96.97 18.84,93.77"/>
    </edge>
    <edge id=":1_6" function="internal">
        <lane id=":1_6_0" index="0" speed="11.30" length="11.44" shape="18.84,96.97 15.64,96.81 13.20,96.20 11.03,94.94 8.63,92.82"/>
    </edge>
    <edge id=":1_7" function="internal">
        <lane id=":1_7_0" index="0" speed="11.30" length="11.44" shape="18.84,96.97 15.64,96.81 13.20,96.20 11.03,94.94 8.63,92.82"/>
    </edge>
    <edge id=":1_8" function="internal">
        <lane id=":1_8_0" index="0" speed="3.24" length="3.20" shape="18.84,96.97 18.84,93.77"/>
    </edge>
    <edge id=":1_9" function="internal">
        <lane id=":1_9_0" index="0" speed="3.24" length="3.20" shape="18.84,96.97 18.84,93.77"/>
    </edge>
    <edge id=":1_10" function="internal">
        <lane id=":1_10_0" index="0" speed="10.07" length="8.99" shape="10.86,90.53 12.80,92.30 14.39,93.27 16.21,93.69 18.84,93.77"/>
    </edge>
    <edge id=":1_11" function="internal">
        <lane id=":1_11_0" index="0" speed="10.07" length="8.99" shape="10.86,90.53 12.80,92.30 14.39,93.27 16.21,93.69 18.84,93.77"/>
    </edge>
    <edge id=":1_12" function="internal">
        <lane id=":1_12_0" index="0" speed="3.24" length="1.60" shape="10.86,90.53 9.74,91.67"/>
    </edge>
    <edge id=":1_16" function="internal">
        <lane id=":1_16_0" index="0" speed="3.24" length="1.60" shape="9.74,91.67 8.63,92.82"/>
    </edge>
    <edge id=":1_13" function="internal">
        <lane id=":1_13_0" index="0" speed="10.07" length="8.99" shape="10.86,90.53 12.80,92.30 14.39,93.27 16.21,93.69 18.84,93.77"/>
    </edge>
    <edge id=":1_14" function="internal">
        <lane id=":1_14_0" index="0" speed="10.07" length="8.99" shape="10.86,90.53 12.80,92.30 14.39,93.27 16.21,93.69 18.84,93.77"/>
    </edge>
    <edge id=":1_15" function="internal">
        <lane id=":1_15_0" index="0" speed="3.24" length="3.20" shape="10.86,90.53 8.63,92.82"/>
    </edge>
    <edge id=":2_0" function="internal">
        <lane id=":2_0_0" index="0" speed="11.23" length="11.46" shape="41.74,92.77 39.35,94.91 37.18,96.19 34.73,96.81 31.53,96.97"/>
    </edge>
    <edge id=":2_1" function="internal">
        <lane id=":2_1_0" index="0" speed="11.23" length="11.46" shape="41.74,92.77 39.35,94.91 37.18,96.19 34.73,96.81 31.53,96.97"/>
    </edge>
    <edge id=":2_2" function="internal">
        <lane id=":2_2_0" index="0" speed="11.23" length="9.86" shape="41.74,92.77 39.35,94.91 37.18,96.19 34.73,96.81 33.13,96.89"/>
    </edge>
    <edge id=":2_3" function="internal">
        <lane id=":2_3_0" index="0" speed="3.24" length="3.20" shape="41.74,92.77 39.50,90.50"/>
    </edge>
    <edge id=":2_16" function="internal">
        <lane id=":2_16_0" index="0" speed="11.23" length="1.60" shape="33.13,96.89 31.53,96.97"/>
    </edge>
    <edge id=":2_4" function="internal">
        <lane id=":2_4_0" index="0" speed="11.23" length="11.46" shape="41.74,92.77 39.35,94.91 37.18,96.19 34.73,96.81 31.53,96.97"/>
    </edge>
    <edge id=":2_5" function="internal">
        <lane id=":2_5_0" index="0" speed="11.23" length="11.46" shape="41.74,92.77 39.35,94.91 37.18,96.19 34.73,96.81 31.53,96.97"/>
    </edge>
    <edge id=":2_6" function="internal">
        <lane id=":2_6_0" index="0" speed="11.23" length="11.46" shape="41.74,92.77 39.35,94.91 37.18,96.19 34.73,96.81 31.53,96.97"/>
    </edge>
    <edge id=":2_7" function="internal">
        <lane id=":2_7_0" index="0" speed="3.24" length="3.20" shape="41.74,92.77 39.50,90.50"/>
    </edge>
    <edge id=":2_8" function="internal">
        <lane id=":2_8_0" index="0" speed="10.00" length="9.00" shape="31.53,93.77 34.16,93.68 35.98,93.27 37.56,92.29 39.50,90.50"/>
    </edge>
    <edge id=":2_9" function="internal">
        <lane id=":2_9_0" index="0" speed="10.00" length="9.00" shape="31.53,93.77 34.16,93.68 35.98,93.27 37.56,92.29 39.50,90.50"/>
    </edge>
    <edge id=":2_10" function="internal">
        <lane id=":2_10_0" index="0" speed="3.24" length="1.60" shape="31.53,93.77 31.53,95.37"/>
    </edge>
    <edge id=":2_11" function="internal">
        <lane id=":2_11_0" index="0" speed="3.24" length="1.60" shape="31.53,93.77 31.53,95.37"/>
    </edge>
    <edge id=":2_17" function="internal">
        <lane id=":2_17_0" index="0" speed="3.24" length="1.60" shape="31.53,95.37 31.53,96.97"/>
    </edge>
    <edge id=":2_18" function="internal">
        <lane id=":2_18_0" index="0" speed="3.24" length="1.60" shape="31.53,95.37 31.53,96.97"/>
    </edge>
    <edge id=":2_12" function="internal">
        <lane id=":2_12_0" index="0" speed="10.00" length="9.00" shape="31.53,93.77 34.16,93.68 35.98,93.27 37.56,92.29 39.50,90.50"/>
    </edge>
    <edge id=":2_13" function="internal">
        <lane id=":2_13_0" index="0" speed="10.00" length="9.00" shape="31.53,93.77 34.16,93.68 35.98,93.27 37.56,92.29 39.50,90.50"/>
    </edge>
    <edge id=":2_14" function="internal">
        <lane id=":2_14_0" index="0" speed="3.24" length="3.20" shape="31.53,93.77 31.53,96.97"/>
    </edge>
    <edge id=":2_15" function="internal">
        <lane id=":2_15_0" index="0" speed="3.24" length="3.20" shape="31.53,93.77 31.53,96.97"/>
    </edge>
    <edge id=":3_0" function="internal">
        <lane id=":3_0_0" index="0" speed="10.90" length="11.31" shape="52.81,75.72 52.47,78.30 51.52,81.20 50.16,83.93 48.59,86.01"/>
    </edge>
    <edge id=":3_1" function="internal">
        <lane id=":3_1_0" index="0" speed="10.96" length="11.43" shape="52.81,75.72 52.57,78.63 51.79,81.31 50.47,83.77 48.59,86.01"/>
    </edge>
    <edge id=":3_2" function="internal">
        <lane id=":3_2_0" index="0" speed="3.24" length="3.20" shape="52.81,75.72 49.61,75.76"/>
    </edge>
    <edge id=":3_3" function="internal">
        <lane id=":3_3_0" index="0" speed="3.65" length="2.49" shape="52.81,75.72 52.02,76.93 51.23,77.34 51.09,77.27"/>
    </edge>
    <edge id=":3_17" function="internal">
        <lane id=":3_17_0" index="0" speed="3.65" length="2.18" shape="51.09,77.27 50.42,76.95 49.61,75.76"/>
    </edge>
    <edge id=":3_4" function="internal">
        <lane id=":3_4_0" index="0" speed="10.96" length="11.43" shape="52.81,75.72 52.57,78.63 51.79,81.31 50.47,83.77 48.59,86.01"/>
    </edge>
    <edge id=":3_5" function="internal">
        <lane id=":3_5_0" index="0" speed="10.96" length="11.43" shape="52.81,75.72 52.57,78.63 51.79,81.31 50.47,83.77 48.59,86.01"/>
    </edge>
    <edge id=":3_6" function="internal">
        <lane id=":3_6_0" index="0" speed="3.24" length="3.20" shape="52.81,75.72 49.61,75.76"/>
    </edge>
    <edge id=":3_7" function="internal">
        <lane id=":3_7_0" index="0" speed="3.24" length="3.20" shape="52.81,75.72 49.61,75.76"/>
    </edge>
    <edge id=":3_8" function="internal">
        <lane id=":3_8_0" index="0" speed="9.70" length="8.85" shape="46.34,83.73 47.79,82.00 48.82,80.09 49.43,78.01 49.61,75.76"/>
    </edge>
    <edge id=":3_9" function="internal">
        <lane id=":3_9_0" index="0" speed="9.70" length="8.85" shape="46.34,83.73 47.79,82.00 48.82,80.09 49.43,78.01 49.61,75.76"/>
    </edge>
    <edge id=":3_10" function="internal">
        <lane id=":3_10_0" index="0" speed="3.24" length="1.59" shape="46.34,83.73 47.46,84.86"/>
    </edge>
    <edge id=":3_18" function="internal">
        <lane id=":3_18_0" index="0" speed="3.24" length="1.61" shape="47.46,84.86 48.59,86.01"/>
    </edge>
    <edge id=":3_11" function="internal">
        <lane id=":3_11_0" index="0" speed="9.70" length="8.85" shape="46.34,83.73 47.79,82.00 48.82,80.09 49.43,78.01 49.61,75.76"/>
    </edge>
    <edge id=":3_12" function="internal">
        <lane id=":3_12_0" index="0" speed="9.70" length="8.85" shape="46.34,83.73 47.79,82.00 48.82,80.09 49.43,78.01 49.61,75.76"/>
    </edge>
    <edge id=":3_13" function="internal">
        <lane id=":3_13_0" index="0" speed="3.24" length="3.20" shape="46.34,83.73 48.59,86.01"/>
    </edge>
    <edge id=":3_14" function="internal">
        <lane id=":3_14_0" index="0" speed="10.96" length="11.43" shape="52.81,75.72 52.57,78.63 51.79,81.31 50.47,83.77 48.59,86.01"/>
    </edge>
    <edge id=":3_15" function="internal">
        <lane id=":3_15_0" index="0" speed="10.96" length="11.43" shape="52.81,75.72 52.57,78.63 51.79,81.31 50.47,83.77 48.59,86.01"/>
    </edge>
    <edge id=":3_16" function="internal">
        <lane id=":3_16_0" index="0" speed="3.24" length="3.20" shape="52.81,75.72 49.61,75.76"/>
    </edge>
    <edge id=":4_0" function="internal">
        <lane id=":4_0_0" index="0" speed="9.43" length="8.87" shape="49.54,71.25 49.29,68.99 48.61,66.94 47.49,65.09 45.93,63.43"/>
    </edge>
    <edge id=":4_1" function="internal">
        <lane id=":4_1_0" index="0" speed="9.43" length="8.87" shape="49.54,71.25 49.29,68.99 48.61,66.94 47.49,65.09 45.93,63.43"/>
    </edge>
    <edge id=":4_2" function="internal">
        <lane id=":4_2_0" index="0" speed="3.24" length="1.59" shape="49.54,71.25 51.14,71.23"/>
    </edge>
    <edge id=":4_3" function="internal">
        <lane id=":4_3_0" index="0" speed="3.24" length="1.59" shape="49.54,71.25 51.14,71.23"/>
    </edge>
    <edge id=":4_4" function="internal">
        <lane id=":4_4_0" index="0" speed="3.65" length="2.16" shape="49.54,71.25 50.33,70.04 50.97,69.71"/>
    </edge>
    <edge id=":4_17" function="internal">
        <lane id=":4_17_0" index="0" speed="3.24" length="1.61" shape="51.14,71.23 52.74,71.20"/>
    </edge>
    <edge id=":4_18" function="internal">
        <lane id=":4_18_0" index="0" speed="3.24" length="1.61" shape="51.14,71.23 52.74,71.20"/>
    </edge>
    <edge id=":4_19" function="internal">
        <lane id=":4_19_0" index="0" speed="3.65" length="2.51" shape="50.97,69.71 51.12,69.63 51.93,70.02 52.74,71.20"/>
    </edge>
    <edge id=":4_5" function="internal">
        <lane id=":4_5_0" index="0" speed="10.70" length="9.95" shape="48.04,61.02 50.06,63.18 51.53,65.59 52.42,68.27 52.57,69.61"/>
    </edge>
    <edge id=":4_6" function="internal">
        <lane id=":4_6_0" index="0" speed="10.70" length="9.95" shape="48.04,61.02 50.06,63.18 51.53,65.59 52.42,68.27 52.57,69.61"/>
    </edge>
    <edge id=":4_7" function="internal">
        <lane id=":4_7_0" index="0" speed="10.70" length="11.56" shape="48.04,61.02 50.06,63.18 51.53,65.59 52.42,68.27 52.74,71.20"/>
    </edge>
    <edge id=":4_8" function="internal">
        <lane id=":4_8_0" index="0" speed="3.24" length="3.20" shape="48.04,61.02 45.93,63.43"/>
    </edge>
    <edge id=":4_20" function="internal">
        <lane id=":4_20_0" index="0" speed="10.70" length="1.61" shape="52.57,69.61 52.74,71.20"/>
    </edge>
    <edge id=":4_21" function="internal">
        <lane id=":4_21_0" index="0" speed="10.70" length="1.61" shape="52.57,69.61 52.74,71.20"/>
    </edge>
    <edge id=":4_9" function="internal">
        <lane id=":4_9_0" index="0" speed="10.70" length="11.56" shape="48.04,61.02 50.06,63.18 51.53,65.59 52.42,68.27 52.74,71.20"/>
    </edge>
    <edge id=":4_10" function="internal">
        <lane id=":4_10_0" index="0" speed="10.70" length="11.56" shape="48.04,61.02 50.06,63.18 51.53,65.59 52.42,68.27 52.74,71.20"/>
    </edge>
    <edge id=":4_11" function="internal">
        <lane id=":4_11_0" index="0" speed="10.70" length="11.56" shape="48.04,61.02 50.06,63.18 51.53,65.59 52.42,68.27 52.74,71.20"/>
    </edge>
    <edge id=":4_12" function="internal">
        <lane id=":4_12_0" index="0" speed="3.24" length="3.20" shape="48.04,61.02 45.93,63.43"/>
    </edge>
    <edge id=":4_13" function="internal">
        <lane id=":4_13_0" index="0" speed="9.43" length="8.87" shape="49.54,71.25 49.29,68.99 48.61,66.94 47.49,65.09 45.93,63.43"/>
    </edge>
    <edge id=":4_14" function="internal">
        <lane id=":4_14_0" index="0" speed="9.43" length="8.87" shape="49.54,71.25 49.29,68.99 48.61,66.94 47.49,65.09 45.93,63.43"/>
    </edge>
    <edge id=":4_15" function="internal">
        <lane id=":4_15_0" index="0" speed="3.24" length="3.20" shape="49.54,71.25 52.74,71.20"/>
    </edge>
    <edge id=":4_16" function="internal">
        <lane id=":4_16_0" index="0" speed="3.24" length="3.20" shape="49.54,71.25 52.74,71.20"/>
    </edge>
    <edge id=":5_0" function="internal">
        <lane id=":5_0_0" index="0" speed="10.60" length="8.94" shape="39.58,57.89 37.56,56.22 35.95,55.31 34.14,54.93 31.52,54.86"/>
    </edge>
    <edge id=":5_1" function="internal">
        <lane id=":5_1_0" index="0" speed="10.60" length="8.94" shape="39.58,57.89 37.56,56.22 35.95,55.31 34.14,54.93 31.52,54.86"/>
    </edge>
    <edge id=":5_2" function="internal">
        <lane id=":5_2_0" index="0" speed="11.01" length="9.68" shape="39.58,57.89 37.50,55.87 35.98,54.43 34.25,53.55 31.52,53.26"/>
    </edge>
    <edge id=":5_3" function="internal">
        <lane id=":5_3_0" index="0" speed="3.24" length="1.60" shape="39.58,57.89 40.63,56.68"/>
    </edge>
    <edge id=":5_12" function="internal">
        <lane id=":5_12_0" index="0" speed="3.24" length="1.60" shape="40.63,56.68 41.69,55.48"/>
    </edge>
    <edge id=":5_4" function="internal">
        <lane id=":5_4_0" index="0" speed="11.82" length="11.22" shape="31.52,51.66 34.69,51.79 37.07,52.33 39.21,53.49 41.69,55.48"/>
    </edge>
    <edge id=":5_5" function="internal">
        <lane id=":5_5_0" index="0" speed="11.82" length="11.22" shape="31.52,51.66 34.69,51.79 37.07,52.33 39.21,53.49 41.69,55.48"/>
    </edge>
    <edge id=":5_6" function="internal">
        <lane id=":5_6_0" index="0" speed="3.24" length="3.20" shape="31.52,51.66 31.52,54.86"/>
    </edge>
    <edge id=":5_7" function="internal">
        <lane id=":5_7_0" index="0" speed="2.73" length="1.60" shape="31.52,51.66 31.52,53.26"/>
    </edge>
    <edge id=":5_8" function="internal">
        <lane id=":5_8_0" index="0" speed="10.60" length="8.94" shape="39.58,57.89 37.56,56.22 35.95,55.31 34.14,54.93 31.52,54.86"/>
    </edge>
    <edge id=":5_9" function="internal">
        <lane id=":5_9_0" index="0" speed="10.60" length="8.94" shape="39.58,57.89 37.56,56.22 35.95,55.31 34.14,54.93 31.52,54.86"/>
    </edge>
    <edge id=":5_10" function="internal">
        <lane id=":5_10_0" index="0" speed="11.01" length="9.68" shape="39.58,57.89 37.50,55.87 35.98,54.43 34.25,53.55 31.52,53.26"/>
    </edge>
    <edge id=":5_11" function="internal">
        <lane id=":5_11_0" index="0" speed="3.24" length="3.20" shape="39.58,57.89 41.69,55.48"/>
    </edge>
    <edge id=":6_0" function="internal">
        <lane id=":6_0_0" index="0" speed="8.97" length="4.75" shape="14.85,53.25 13.58,53.50 12.87,54.13 12.24,55.01 11.20,55.99"/>
    </edge>
    <edge id=":6_1" function="internal">
        <lane id=":6_1_0" index="0" speed="8.97" length="4.75" shape="14.85,53.25 13.58,53.50 12.87,54.13 12.24,55.01 11.20,55.99"/>
    </edge>
    <edge id=":6_2" function="internal">
        <lane id=":6_2_0" index="0" speed="8.97" length="4.75" shape="14.85,53.25 13.58,53.50 12.87,54.13 12.24,55.01 11.20,55.99"/>
    </edge>
    <edge id=":6_3" function="internal">
        <lane id=":6_3_0" index="0" speed="2.73" length="1.60" shape="14.85,53.25 14.85,51.65"/>
    </edge>
    <edge id=":6_4" function="internal">
        <lane id=":6_4_0" index="0" speed="9.93" length="5.88" shape="9.38,53.35 10.83,52.40 11.93,51.89 13.12,51.69 14.85,51.65"/>
    </edge>
    <edge id=":6_5" function="internal">
        <lane id=":6_5_0" index="0" speed="3.24" length="1.58" shape="9.38,53.35 10.28,54.66"/>
    </edge>
    <edge id=":6_6" function="internal">
        <lane id=":6_6_0" index="0" speed="3.24" length="1.58" shape="9.38,53.35 10.28,54.66"/>
    </edge>
    <edge id=":6_14" function="internal">
        <lane id=":6_14_0" index="0" speed="3.24" length="1.62" shape="10.28,54.66 11.20,55.99"/>
    </edge>
    <edge id=":6_15" function="internal">
        <lane id=":6_15_0" index="0" speed="3.24" length="1.62" shape="10.28,54.66 11.20,55.99"/>
    </edge>
    <edge id=":6_7" function="internal">
        <lane id=":6_7_0" index="0" speed="8.20" length="3.92" shape="14.85,54.85 13.69,54.88 12.90,55.01 12.17,55.35 11.20,55.99"/>
    </edge>
    <edge id=":6_8" function="internal">
        <lane id=":6_8_0" index="0" speed="8.20" length="3.92" shape="14.85,54.85 13.69,54.88 12.90,55.01 12.17,55.35 11.20,55.99"/>
    </edge>
    <edge id=":6_9" function="internal">
        <lane id=":6_9_0" index="0" speed="8.20" length="3.92" shape="14.85,54.85 13.69,54.88 12.90,55.01 12.17,55.35 11.20,55.99"/>
    </edge>
    <edge id=":6_10" function="internal">
        <lane id=":6_10_0" index="0" speed="8.20" length="3.92" shape="14.85,54.85 13.69,54.88 12.90,55.01 12.17,55.35 11.20,55.99"/>
    </edge>
    <edge id=":6_11" function="internal">
        <lane id=":6_11_0" index="0" speed="8.20" length="3.92" shape="14.85,54.85 13.69,54.88 12.90,55.01 12.17,55.35 11.20,55.99"/>
    </edge>
    <edge id=":6_12" function="internal">
        <lane id=":6_12_0" index="0" speed="8.20" length="3.92" shape="14.85,54.85 13.69,54.88 12.90,55.01 12.17,55.35 11.20,55.99"/>
    </edge>
    <edge id=":6_13" function="internal">
        <lane id=":6_13_0" index="0" speed="3.24" length="3.20" shape="14.85,54.85 14.85,51.65"/>
    </edge>
    <edge id=":7_0" function="internal">
        <lane id=":7_0_0" index="0" speed="8.62" length="8.93" shape="2.75,61.83 1.01,63.34 -0.24,65.10 -0.99,67.13 -1.24,69.42"/>
    </edge>
    <edge id=":7_1" function="internal">
        <lane id=":7_1_0" index="0" speed="8.62" length="8.93" shape="2.75,61.83 1.01,63.34 -0.24,65.10 -0.99,67.13 -1.24,69.42"/>
    </edge>
    <edge id=":7_2" function="internal">
        <lane id=":7_2_0" index="0" speed="3.24" length="1.59" shape="2.75,61.83 1.84,60.52"/>
    </edge>
    <edge id=":7_12" function="internal">
        <lane id=":7_12_0" index="0" speed="3.24" length="1.61" shape="1.84,60.52 0.93,59.20"/>
    </edge>
    <edge id=":7_3" function="internal">
        <lane id=":7_3_0" index="0" speed="8.62" length="8.93" shape="2.75,61.83 1.01,63.34 -0.24,65.10 -0.99,67.13 -1.24,69.42"/>
    </edge>
    <edge id=":7_4" function="internal">
        <lane id=":7_4_0" index="0" speed="8.62" length="8.93" shape="2.75,61.83 1.01,63.34 -0.24,65.10 -0.99,67.13 -1.24,69.42"/>
    </edge>
    <edge id=":7_5" function="internal">
        <lane id=":7_5_0" index="0" speed="3.24" length="3.20" shape="2.75,61.83 0.93,59.20"/>
    </edge>
    <edge id=":7_6" function="internal">
        <lane id=":7_6_0" index="0" speed="9.92" length="12.02" shape="-4.44,69.41 -4.10,66.33 -3.09,63.60 -1.42,61.22 0.93,59.20"/>
    </edge>
    <edge id=":7_7" function="internal">
        <lane id=":7_7_0" index="0" speed="3.24" length="3.20" shape="-4.44,69.41 -1.24,69.42"/>
    </edge>
    <edge id=":7_8" function="internal">
        <lane id=":7_8_0" index="0" speed="9.92" length="12.02" shape="-4.44,69.41 -4.10,66.33 -3.09,63.60 -1.42,61.22 0.93,59.20"/>
    </edge>
    <edge id=":7_9" function="internal">
        <lane id=":7_9_0" index="0" speed="3.24" length="3.20" shape="-4.44,69.41 -1.24,69.42"/>
    </edge>
    <edge id=":7_10" function="internal">
        <lane id=":7_10_0" index="0" speed="8.62" length="8.93" shape="2.75,61.83 1.01,63.34 -0.24,65.10 -0.99,67.13 -1.24,69.42"/>
    </edge>
    <edge id=":7_11" function="internal">
        <lane id=":7_11_0" index="0" speed="8.62" length="8.93" shape="2.75,61.83 1.01,63.34 -0.24,65.10 -0.99,67.13 -1.24,69.42"/>
    </edge>
    <edge id=":8_0" function="internal">
        <lane id=":8_0_0" index="0" speed="11.00" length="11.41" shape="-0.14,84.28 -2.03,82.06 -3.38,79.62 -4.18,76.94 -4.45,74.04"/>
    </edge>
    <edge id=":8_1" function="internal">
        <lane id=":8_1_0" index="0" speed="11.00" length="11.41" shape="-0.14,84.28 -2.03,82.06 -3.38,79.62 -4.18,76.94 -4.45,74.04"/>
    </edge>
    <edge id=":8_2" function="internal">
        <lane id=":8_2_0" index="0" speed="3.24" length="3.20" shape="-0.14,84.28 2.09,81.99"/>
    </edge>
    <edge id=":8_3" function="internal">
        <lane id=":8_3_0" index="0" speed="11.00" length="11.41" shape="-0.14,84.28 -2.03,82.06 -3.38,79.62 -4.18,76.94 -4.45,74.04"/>
    </edge>
    <edge id=":8_4" function="internal">
        <lane id=":8_4_0" index="0" speed="11.00" length="11.41" shape="-0.14,84.28 -2.03,82.06 -3.38,79.62 -4.18,76.94 -4.45,74.04"/>
    </edge>
    <edge id=":8_5" function="internal">
        <lane id=":8_5_0" index="0" speed="3.24" length="3.20" shape="-0.14,84.28 2.09,81.99"/>
    </edge>
    <edge id=":8_6" function="internal">
        <lane id=":8_6_0" index="0" speed="9.73" length="8.85" shape="-1.25,74.05 -1.04,76.30 -0.42,78.37 0.63,80.27 2.09,81.99"/>
    </edge>
    <edge id=":8_7" function="internal">
        <lane id=":8_7_0" index="0" speed="9.73" length="8.85" shape="-1.25,74.05 -1.04,76.30 -0.42,78.37 0.63,80.27 2.09,81.99"/>
    </edge>
    <edge id=":8_8" function="internal">
        <lane id=":8_8_0" index="0" speed="3.24" length="1.59" shape="-1.25,74.05 -2.84,74.05"/>
    </edge>
    <edge id=":8_12" function="internal">
        <lane id=":8_12_0" index="0" speed="3.24" length="1.61" shape="-2.84,74.05 -4.45,74.04"/>
    </edge>
    <edge id=":8_9" function="internal">
        <lane id=":8_9_0" index="0" speed="9.73" length="8.85" shape="-1.25,74.05 -1.04,76.30 -0.42,78.37 0.63,80.27 2.09,81.99"/>
    </edge>
    <edge id=":8_10" function="internal">
        <lane id=":8_10_0" index="0" speed="9.73" length="8.85" shape="-1.25,74.05 -1.04,76.30 -0.42,78.37 0.63,80.27 2.09,81.99"/>
    </edge>
    <edge id=":8_11" function="internal">
        <lane id=":8_11_0" index="0" speed="3.24" length="3.20" shape="-1.25,74.05 -4.45,74.04"/>
    </edge>

    <edge id="---gneE4" from="4" to="3" priority="-1">
        <lane id="---gneE4_0" index="0" speed="13.89" length="4.51" shape="52.74,71.20 52.81,75.72"/>
    </edge>
    <edge id="---gneE6" from="6" to="5" priority="-1">
        <lane id="---gneE6_0" index="0" speed="13.89" length="16.67" shape="14.85,51.65 31.52,51.66"/>
    </edge>
    <edge id="--gneE1" from="8" to="1" priority="-1">
        <lane id="--gneE1_0" index="0" speed="13.89" length="12.24" shape="2.09,81.99 10.86,90.53"/>
    </edge>
    <edge id="--gneE3" from="2" to="3" priority="-1">
        <lane id="--gneE3_0" index="0" speed="13.89" length="9.62" shape="39.50,90.50 46.34,83.73"/>
    </edge>
    <edge id="--gneE4" from="3" to="4" priority="-1">
        <lane id="--gneE4_0" index="0" speed="13.89" length="4.51" shape="49.61,75.76 49.54,71.25"/>
    </edge>
    <edge id="--gneE5" from="4" to="5" priority="-1">
        <lane id="--gneE5_0" index="0" speed="13.89" length="8.43" shape="45.93,63.43 39.58,57.89"/>
    </edge>
    <edge id="--gneE6" from="5" to="6" priority="-1">
        <lane id="--gneE6_0" index="0" speed="13.89" length="16.67" shape="31.52,54.86 14.85,54.85"/>
    </edge>
    <edge id="--gneE7" from="6" to="7" priority="-1">
        <lane id="--gneE7_0" index="0" speed="13.89" length="10.28" shape="11.20,55.99 2.75,61.83"/>
    </edge>
    <edge id="--gneE8" from="7" to="8" priority="-1">
        <lane id="--gneE8_0" index="0" speed="13.89" length="4.63" shape="-1.24,69.42 -1.25,74.05"/>
    </edge>
    <edge id="-gneE1" from="1" to="8" priority="-1">
        <lane id="-gneE1_0" index="0" speed="13.89" length="12.24" shape="8.63,92.82 -0.14,84.28"/>
    </edge>
    <edge id="-gneE2" from="2" to="1" priority="-1">
        <lane id="-gneE2_0" index="0" speed="13.89" length="12.68" shape="31.53,96.97 18.84,96.97"/>
    </edge>
    <edge id="-gneE3" from="3" to="2" priority="-1">
        <lane id="-gneE3_0" index="0" speed="13.89" length="9.62" shape="48.59,86.01 41.74,92.77"/>
    </edge>
    <edge id="-gneE4" from="4" to="3" priority="-1">
        <lane id="-gneE4_0" index="0" speed="13.89" length="4.51" shape="52.74,71.20 52.81,75.72"/>
    </edge>
    <edge id="-gneE5" from="5" to="4" priority="-1">
        <lane id="-gneE5_0" index="0" speed="13.89" length="8.43" shape="41.69,55.48 48.04,61.02"/>
    </edge>
    <edge id="-gneE6" from="5" to="6" priority="-1">
        <lane id="-gneE6_0" index="0" speed="13.89" length="16.67" shape="31.52,54.86 14.85,54.85"/>
    </edge>
    <edge id="-gneE7" from="7" to="6" priority="-1">
        <lane id="-gneE7_0" index="0" speed="13.89" length="10.28" shape="0.93,59.20 9.38,53.35"/>
    </edge>
    <edge id="-gneE8" from="8" to="7" priority="-1">
        <lane id="-gneE8_0" index="0" speed="13.89" length="4.63" shape="-4.45,74.04 -4.44,69.41"/>
    </edge>
    <edge id="1-2" from="1" to="2" priority="-1">
        <lane id="1-2_0" index="0" speed="13.89" length="12.68" shape="18.84,93.77 31.53,93.77"/>
    </edge>
    <edge id="6-7" from="6" to="7" priority="-1">
        <lane id="6-7_0" index="0" speed="13.89" length="10.28" shape="11.20,55.99 2.75,61.83"/>
    </edge>
    <edge id="gneE1" from="8" to="1" priority="-1">
        <lane id="gneE1_0" index="0" speed="13.89" length="12.24" shape="2.09,81.99 10.86,90.53"/>
    </edge>
    <edge id="gneE10" from="2" to="1" priority="-1">
        <lane id="gneE10_0" index="0" speed="13.89" length="12.68" shape="31.53,96.97 18.84,96.97"/>
    </edge>
    <edge id="gneE11" from="1" to="8" priority="-1">
        <lane id="gneE11_0" index="0" speed="13.89" length="12.24" shape="8.63,92.82 -0.14,84.28"/>
    </edge>
    <edge id="gneE12" from="8" to="7" priority="-1">
        <lane id="gneE12_0" index="0" speed="13.89" length="4.63" shape="-4.45,74.04 -4.44,69.41"/>
    </edge>
    <edge id="gneE13" from="5" to="4" priority="-1">
        <lane id="gneE13_0" index="0" speed="13.89" length="8.43" shape="41.69,55.48 48.04,61.02"/>
    </edge>
    <edge id="gneE14" from="4" to="3" priority="-1">
        <lane id="gneE14_0" index="0" speed="13.89" length="4.51" shape="52.74,71.20 52.81,75.72"/>
    </edge>
    <edge id="gneE15" from="3" to="2" priority="-1">
        <lane id="gneE15_0" index="0" speed="13.89" length="9.62" shape="48.59,86.01 41.74,92.77"/>
    </edge>
    <edge id="gneE16" from="6" to="7" priority="-1">
        <lane id="gneE16_0" index="0" speed="13.89" length="10.28" shape="11.20,55.99 2.75,61.83"/>
    </edge>
    <edge id="gneE2" from="1" to="2" priority="-1">
        <lane id="gneE2_0" index="0" speed="13.89" length="12.68" shape="18.84,93.77 31.53,93.77"/>
    </edge>
    <edge id="gneE3" from="2" to="3" priority="-1">
        <lane id="gneE3_0" index="0" speed="13.89" length="9.62" shape="39.50,90.50 46.34,83.73"/>
    </edge>
    <edge id="gneE4" from="3" to="4" priority="-1">
        <lane id="gneE4_0" index="0" speed="13.89" length="4.51" shape="49.61,75.76 49.54,71.25"/>
    </edge>
    <edge id="gneE5" from="4" to="5" priority="-1">
        <lane id="gneE5_0" index="0" speed="13.89" length="8.43" shape="45.93,63.43 39.58,57.89"/>
    </edge>
    <edge id="gneE6" from="5" to="6" priority="-1" spreadType="center">
        <lane id="gneE6_0" index="0" speed="13.89" length="16.67" shape="31.52,53.26 14.85,53.25"/>
    </edge>
    <edge id="gneE8" from="7" to="8" priority="-1">
        <lane id="gneE8_0" index="0" speed="13.89" length="4.63" shape="-1.24,69.42 -1.25,74.05"/>
    </edge>
    <edge id="gneE9" from="2" to="1" priority="-1">
        <lane id="gneE9_0" index="0" speed="13.89" length="12.68" shape="31.53,96.97 18.84,96.97"/>
    </edge>

    <junction id="1" type="priority" x="13.54" y="95.37" incLanes="-gneE2_0 gneE10_0 gneE9_0 --gneE1_0 gneE1_0" intLanes=":1_0_0 :1_1_0 :1_2_0 :1_3_0 :1_4_0 :1_5_0 :1_6_0 :1_7_0 :1_8_0 :1_9_0 :1_10_0 :1_11_0 :1_16_0 :1_13_0 :1_14_0 :1_15_0" shape="18.84,98.57 18.84,92.17 16.00,92.02 15.01,91.74 14.11,91.25 13.15,90.48 11.97,89.38 7.51,93.96 9.45,95.79 11.04,97.05 12.52,97.87 14.16,98.32 16.18,98.53">
        <request index="0"  response="0000001100100000" foes="1001001111111000" cont="0"/>
        <request index="1"  response="1000001100100000" foes="1001001110110000" cont="0"/>
        <request index="2"  response="0000110000000000" foes="0110110111011000" cont="0"/>