<routes>
   <vType accel="1.0" decel="5.0" id="Bus" length="12.0" maxSpeed="1.0" sigma="0.0" />
   <vType accel="10.0" decel="5.0" id="bicycle" length="12.0" maxSpeed="50.0" sigma="0.0" />
   
	<flow id="carflow1" beg="0" end="0" number="1" from="1-2" to="6-7" type="Bus"/>
	<flow id="carflow2" beg="5" end="0" number="1" from="1-2" to="6-7" type="bicycle"/>


</routes>