<?xml version="1.0" encoding="UTF-8"?>

<!-- generated on 05/16/20 02:07:38 by Eclipse SUMO Version 1.5.0
<configuration xmlns:xsi="http://www.w3.org/2001/XMLSchema-instance" xsi:noNamespaceSchemaLocation="http://sumo.dlr.de/xsd/sumoConfiguration.xsd">

    <input>
        <net-file value="Carte_Villes.net.xml"/>
        <route-files value="Trajets.odtrips.xml"/>
    </input>

    <routing>
        <device.rerouting.output value="true"/>
    </routing>

</configuration>
-->

<weights xmlns:xsi="http://www.w3.org/2001/XMLSchema-instance" xsi:noNamespaceSchemaLocation="http://sumo.dlr.de/xsd/meandata_file.xsd">
    <interval id="device.rerouting" begin="2488.00" end="2489.00">
        <edge id=":Ariana_0" traveltime="1.28"/>
        <edge id=":Bardo_0" traveltime="0.66"/>
        <edge id=":Bardo_1" traveltime="1.27"/>
        <edge id=":Bardo_2" traveltime="2.02"/>
        <edge id=":Bardo_3" traveltime="1.68"/>
        <edge id=":Benarous_0" traveltime="1.07"/>
        <edge id=":Benarous_1" traveltime="1.18"/>
        <edge id=":Benarous_2" traveltime="1.27"/>
        <edge id=":Benarous_3" traveltime="2.14"/>
        <edge id=":Benarous_11" traveltime="2.14"/>
        <edge id=":Benarous_4" traveltime="1.07"/>
        <edge id=":Benarous_5" traveltime="2.14"/>
        <edge id=":Benarous_6" traveltime="2.11"/>
        <edge id=":Benarous_12" traveltime="2.94"/>
        <edge id=":Benarous_13" traveltime="2.17"/>
        <edge id=":Benarous_7" traveltime="1.39"/>
        <edge id=":Benarous_8" traveltime="2.86"/>
        <edge id=":Benarous_9" traveltime="2.77"/>
        <edge id=":Benarous_10" traveltime="2.78"/>
        <edge id=":Marsa_0" traveltime="2.02"/>
        <edge id=":Marsa_1" traveltime="1.68"/>
        <edge id=":Marsa_2" traveltime="0.66"/>
        <edge id=":Marsa_3" traveltime="1.27"/>
        <edge id=":Rades_0" traveltime="1.28"/>
        <edge id=":Tunis_0" traveltime="1.07"/>
        <edge id=":Tunis_1" traveltime="2.14"/>
        <edge id=":Tunis_2" traveltime="2.11"/>
        <edge id=":Tunis_11" traveltime="2.94"/>
        <edge id=":Tunis_12" traveltime="2.17"/>
        <edge id=":Tunis_3" traveltime="1.39"/>
        <edge id=":Tunis_4" traveltime="2.86"/>
        <edge id=":Tunis_5" traveltime="2.77"/>
        <edge id=":Tunis_6" traveltime="2.78"/>
        <edge id=":Tunis_7" traveltime="1.07"/>
        <edge id=":Tunis_8" traveltime="1.18"/>
        <edge id=":Tunis_9" traveltime="1.27"/>
        <edge id=":Tunis_10" traveltime="2.14"/>
        <edge id=":Tunis_13" traveltime="2.14"/>
        <edge id="Ariana-Tunis" traveltime="2.03"/>
        <edge id="Bardo-Benarous" traveltime="1.33"/>
        <edge id="Bardo-Tunis" traveltime="1.33"/>
        <edge id="Benarous-Bardo" traveltime="1.33"/>
        <edge id="Benarous-Marsa" traveltime="1.33"/>
        <edge id="Benarous-Rades" traveltime="2.03"/>
        <edge id="Marsa-Benarous" traveltime="1.33"/>
        <edge id="Marsa-Tunis" traveltime="1.33"/>
        <edge id="Rades-Benarous" traveltime="2.03"/>
        <edge id="Tunis-Ariana" traveltime="2.03"/>
        <edge id="Tunis-Bardo" traveltime="1.33"/>
        <edge id="Tunis-Marsa" traveltime="1.33"/>
    </interval>
    <interval id="device.rerouting" begin="2489.00" end="2490.00">
        <edge id=":Ariana_0" traveltime="1.28"/>
        <edge id=":Bardo_0" traveltime="0.66"/>
        <edge id=":Bardo_1" traveltime="1.27"/>
        <edge id=":Bardo_2" traveltime="2.02"/>
        <edge id=":Bardo_3" traveltime="1.68"/>
        <edge id=":Benarous_0" traveltime="1.07"/>
        <edge id=":Benarous_1" traveltime="1.18"/>
        <edge id=":Benarous_2" traveltime="1.27"/>
        <edge id=":Benarous_3" traveltime="2.14"/>
        <edge id=":Benarous_11" traveltime="2.14"/>
        <edge id=":Benarous_4" traveltime="1.07"/>
        <edge id=":Benarous_5" traveltime="2.14"/>
        <edge id=":Benarous_6" traveltime="2.11"/>
        <edge id=":Benarous_12" traveltime="2.94"/>
        <edge id=":Benarous_13" traveltime="2.17"/>
        <edge id=":Benarous_7" traveltime="1.39"/>
        <edge id=":Benarous_8" traveltime="2.86"/>
        <edge id=":Benarous_9" traveltime="2.77"/>
        <edge id=":Benarous_10" traveltime="2.78"/>
        <edge id=":Marsa_0" traveltime="2.02"/>
        <edge id=":Marsa_1" traveltime="1.68"/>
        <edge id=":Marsa_2" traveltime="0.66"/>
        <edge id=":Marsa_3" traveltime="1.27"/>
        <edge id=":Rades_0" traveltime="1.28"/>
        <edge id=":Tunis_0" traveltime="1.07"/>
        <edge id=":Tunis_1" traveltime="2.14"/>
        <edge id=":Tunis_2" traveltime="2.11"/>
        <edge id=":Tunis_11" traveltime="2.94"/>
        <edge id=":Tunis_12" traveltime="2.17"/>
        <edge id=":Tunis_3" traveltime="1.39"/>
        <edge id=":Tunis_4" traveltime="2.86"/>
        <edge id=":Tunis_5" traveltime="2.77"/>
        <edge id=":Tunis_6" traveltime="2.78"/>
        <edge id=":Tunis_7" traveltime="1.07"/>
        <edge id=":Tunis_8" traveltime="1.18"/>
        <edge id=":Tunis_9" traveltime="1.27"/>
        <edge id=":Tunis_10" traveltime="2.14"/>
        <edge id=":Tunis_13" traveltime="2.14"/>
        <edge id="Ariana-Tunis" traveltime="2.04"/>
        <edge id="Bardo-Benarous" traveltime="1.33"/>
        <edge id="Bardo-Tunis" traveltime="1.33"/>
        <edge id="Benarous-Bardo" traveltime="1.33"/>
        <edge id="Benarous-Marsa" traveltime="1.33"/>
        <edge id="Benarous-Rades" traveltime="2.03"/>
        <edge id="Marsa-Benarous" traveltime="1.33"/>
        <edge id="Marsa-Tunis" traveltime="1.33"/>
        <edge id="Rades-Benarous" traveltime="2.03"/>
        <edge id="Tunis-Ariana" traveltime="2.03"/>
        <edge id="Tunis-Bardo" traveltime="1.33"/>
        <edge id="Tunis-Marsa" traveltime="1.33"/>
    </interval>
    <interval id="device.rerouting" begin="2490.00" end="2491.00">
        <edge id=":Ariana_0" traveltime="1.28"/>
        <edge id=":Bardo_0" traveltime="0.66"/>
        <edge id=":Bardo_1" traveltime="1.27"/>
        <edge id=":Bardo_2" traveltime="2.02"/>
        <edge id=":Bardo_3" traveltime="1.68"/>
        <edge id=":Benarous_0" traveltime="1.07"/>
        <edge id=":Benarous_1" traveltime="1.18"/>
        <edge id=":Benarous_2" traveltime="1.27"/>
        <edge id=":Benarous_3" traveltime="2.14"/>
        <edge id=":Benarous_11" traveltime="2.14"/>
        <edge id=":Benarous_4" traveltime="1.07"/>
        <edge id=":Benarous_5" traveltime="2.14"/>
        <edge id=":Benarous_6" traveltime="2.11"/>
        <edge id=":Benarous_12" traveltime="2.94"/>
        <edge id=":Benarous_13" traveltime="2.17"/>
        <edge id=":Benarous_7" traveltime="1.39"/>
        <edge id=":Benarous_8" traveltime="2.86"/>
        <edge id=":Benarous_9" traveltime="2.77"/>
        <edge id=":Benarous_10" traveltime="2.78"/>
        <edge id=":Marsa_0" traveltime="2.02"/>
        <edge id=":Marsa_1" traveltime="1.68"/>
        <edge id=":Marsa_2" traveltime="0.66"/>
        <edge id=":Marsa_3" traveltime="1.27"/>
        <edge id=":Rades_0" traveltime="1.28"/>
        <edge id=":Tunis_0" traveltime="1.07"/>
        <edge id=":Tunis_1" traveltime="2.14"/>
        <edge id=":Tunis_2" traveltime="2.11"/>
        <edge id=":Tunis_11" traveltime="2.94"/>
        <edge id=":Tunis_12" traveltime="2.17"/>
        <edge id=":Tunis_3" traveltime="1.39"/>
        <edge id=":Tunis_4" traveltime="2.86"/>
        <edge id=":Tunis_5" traveltime="2.77"/>
        <edge id=":Tunis_6" traveltime="2.78"/>
        <edge id=":Tunis_7" traveltime="1.07"/>
        <edge id=":Tunis_8" traveltime="1.18"/>
        <edge id=":Tunis_9" traveltime="1.27"/>
        <edge id=":Tunis_10" traveltime="2.14"/>
        <edge id=":Tunis_13" traveltime="2.14"/>
        <edge id="Ariana-Tunis" traveltime="2.05"/>
        <edge id="Bardo-Benarous" traveltime="1.33"/>
        <edge id="Bardo-Tunis" traveltime="1.33"/>
        <edge id="Benarous-Bardo" traveltime="1.33"/>
        <edge id="Benarous-Marsa" traveltime="1.33"/>
        <edge id="Benarous-Rades" traveltime="2.03"/>
        <edge id="Marsa-Benarous" traveltime="1.33"/>
        <edge id="Marsa-Tunis" traveltime="1.33"/>
        <edge id="Rades-Benarous" traveltime="2.03"/>
        <edge id="Tunis-Ariana" traveltime="2.03"/>
        <edge id="Tunis-Bardo" traveltime="1.33"/>
        <edge id="Tunis-Marsa" traveltime="1.33"/>
    </interval>
    <interval id="device.rerouting" begin="2491.00" end="2492.00">
        <edge id=":Ariana_0" traveltime="1.28"/>
        <edge id=":Bardo_0" traveltime="0.66"/>
        <edge id=":Bardo_1" traveltime="1.27"/>
        <edge id=":Bardo_2" traveltime="2.02"/>
        <edge id=":Bardo_3" traveltime="1.68"/>
        <edge id=":Benarous_0" traveltime="1.07"/>
        <edge id=":Benarous_1" traveltime="1.18"/>
        <edge id=":Benarous_2" traveltime="1.27"/>
        <edge id=":Benarous_3" traveltime="2.14"/>
        <edge id=":Benarous_11" traveltime="2.14"/>
        <edge id=":Benarous_4" traveltime="1.07"/>
        <edge id=":Benarous_5" traveltime="2.14"/>
        <edge id=":Benarous_6" traveltime="2.11"/>
        <edge id=":Benarous_12" traveltime="2.94"/>
        <edge id=":Benarous_13" traveltime="2.17"/>
        <edge id=":Benarous_7" traveltime="1.39"/>
        <edge id=":Benarous_8" traveltime="2.86"/>
        <edge id=":Benarous_9" traveltime="2.77"/>
        <edge id=":Benarous_10" traveltime="2.78"/>
        <edge id=":Marsa_0" traveltime="2.02"/>
        <edge id=":Marsa_1" traveltime="1.68"/>
        <edge id=":Marsa_2" traveltime="0.66"/>
        <edge id=":Marsa_3" traveltime="1.27"/>
        <edge id=":Rades_0" traveltime="1.28"/>
        <edge id=":Tunis_0" traveltime="1.07"/>
        <edge id=":Tunis_1" traveltime="2.14"/>
        <edge id=":Tunis_2" traveltime="2.11"/>
        <edge id=":Tunis_11" traveltime="2.94"/>
        <edge id=":Tunis_12" traveltime="2.17"/>
        <edge id=":Tunis_3" traveltime="1.39"/>
        <edge id=":Tunis_4" traveltime="2.86"/>
        <edge id=":Tunis_5" traveltime="2.77"/>
        <edge id=":Tunis_6" traveltime="2.78"/>
        <edge id=":Tunis_7" traveltime="1.07"/>
        <edge id=":Tunis_8" traveltime="1.18"/>
        <edge id=":Tunis_9" traveltime="1.27"/>
        <edge id=":Tunis_10" traveltime="2.14"/>
        <edge id=":Tunis_13" traveltime="2.14"/>
        <edge id="Ariana-Tunis" traveltime="2.06"/>
        <edge id="Bardo-Benarous" traveltime="1.33"/>
        <edge id="Bardo-Tunis" traveltime="1.33"/>
        <edge id="Benarous-Bardo" traveltime="1.33"/>
        <edge id="Benarous-Marsa" traveltime="1.33"/>
        <edge id="Benarous-Rades" traveltime="2.03"/>
        <edge id="Marsa-Benarous" traveltime="1.33"/>
        <edge id="Marsa-Tunis" traveltime="1.33"/>
        <edge id="Rades-Benarous" traveltime="2.03"/>
        <edge id="Tunis-Ariana" traveltime="2.03"/>
        <edge id="Tunis-Bardo" traveltime="1.33"/>
        <edge id="Tunis-Marsa" traveltime="1.33"/>
    </interval>
    <interval id="device.rerouting" begin="2492.00" end="2493.00">
        <edge id=":Ariana_0" traveltime="1.28"/>
        <edge id=":Bardo_0" traveltime="0.66"/>
        <edge id=":Bardo_1" traveltime="1.27"/>
        <edge id=":Bardo_2" traveltime="2.02"/>
        <edge id=":Bardo_3" traveltime="1.68"/>
        <edge id=":Benarous_0" traveltime="1.07"/>
        <edge id=":Benarous_1" traveltime="1.18"/>
        <edge id=":Benarous_2" traveltime="1.27"/>
        <edge id=":Benarous_3" traveltime="2.14"/>
        <edge id=":Benarous_11" traveltime="2.14"/>
        <edge id=":Benarous_4" traveltime="1.07"/>
        <edge id=":Benarous_5" traveltime="2.14"/>
        <edge id=":Benarous_6" traveltime="2.11"/>
        <edge id=":Benarous_12" traveltime="2.94"/>
        <edge id=":Benarous_13" traveltime="2.17"/>
        <edge id=":Benarous_7" traveltime="1.39"/>
        <edge id=":Benarous_8" traveltime="2.86"/>
        <edge id=":Benarous_9" traveltime="2.77"/>
        <edge id=":Benarous_10" traveltime="2.78"/>
        <edge id=":Marsa_0" traveltime="2.02"/>
        <edge id=":Marsa_1" traveltime="1.68"/>
        <edge id=":Marsa_2" traveltime="0.66"/>
        <edge id=":Marsa_3" traveltime="1.27"/>
        <edge id=":Rades_0" traveltime="1.28"/>
        <edge id=":Tunis_0" traveltime="1.07"/>
        <edge id=":Tunis_1" traveltime="2.14"/>
        <edge id=":Tunis_2" traveltime="2.11"/>
        <edge id=":Tunis_11" traveltime="2.94"/>
        <edge id=":Tunis_12" traveltime="2.17"/>
        <edge id=":Tunis_3" traveltime="1.39"/>
        <edge id=":Tunis_4" traveltime="2.86"/>
        <edge id=":Tunis_5" traveltime="2.77"/>
        <edge id=":Tunis_6" traveltime="2.78"/>
        <edge id=":Tunis_7" traveltime="1.07"/>
        <edge id=":Tunis_8" traveltime="1.18"/>
        <edge id=":Tunis_9" traveltime="1.27"/>
        <edge id=":Tunis_10" traveltime="2.14"/>
        <edge id=":Tunis_13" traveltime="2.14"/>
        <edge id="Ariana-Tunis" traveltime="2.07"/>
        <edge id="Bardo-Benarous" traveltime="1.33"/>
        <edge id="Bardo-Tunis" traveltime="1.33"/>
        <edge id="Benarous-Bardo" traveltime="1.33"/>
        <edge id="Benarous-Marsa" traveltime="1.33"/>
        <edge id="Benarous-Rades" traveltime="2.03"/>
        <edge id="Marsa-Benarous" traveltime="1.33"/>
        <edge id="Marsa-Tunis" traveltime="1.33"/>
        <edge id="Rades-Benarous" traveltime="2.03"/>
        <edge id="Tunis-Ariana" traveltime="2.03"/>
        <edge id="Tunis-Bardo" traveltime="1.33"/>
        <edge id="Tunis-Marsa" traveltime="1.33"/>
    </interval>
    <interval id="device.rerouting" begin="2493.00" end="2494.00">
        <edge id=":Ariana_0" traveltime="1.28"/>
        <edge id=":Bardo_0" traveltime="0.66"/>
        <edge id=":Bardo_1" traveltime="1.27"/>
        <edge id=":Bardo_2" traveltime="2.02"/>
        <edge id=":Bardo_3" traveltime="1.68"/>
        <edge id=":Benarous_0" traveltime="1.07"/>
        <edge id=":Benarous_1" traveltime="1.18"/>
        <edge id=":Benarous_2" traveltime="1.27"/>
        <edge id=":Benarous_3" traveltime="2.14"/>
        <edge id=":Benarous_11" traveltime="2.14"/>
        <edge id=":Benarous_4" traveltime="1.07"/>
        <edge id=":Benarous_5" traveltime="2.14"/>
        <edge id=":Benarous_6" traveltime="2.11"/>
        <edge id=":Benarous_12" traveltime="2.94"/>
        <edge id=":Benarous_13" traveltime="2.17"/>
        <edge id=":Benarous_7" traveltime="1.39"/>
        <edge id=":Benarous_8" traveltime="2.86"/>
        <edge id=":Benarous_9" traveltime="2.77"/>
        <edge id=":Benarous_10" traveltime="2.78"/>
        <edge id=":Marsa_0" traveltime="2.02"/>
        <edge id=":Marsa_1" traveltime="1.68"/>
        <edge id=":Marsa_2" traveltime="0.66"/>
        <edge id=":Marsa_3" traveltime="1.27"/>
        <edge id=":Rades_0" traveltime="1.28"/>
        <edge id=":Tunis_0" traveltime="1.07"/>
        <edge id=":Tunis_1" traveltime="2.14"/>
        <edge id=":Tunis_2" traveltime="2.11"/>
        <edge id=":Tunis_11" traveltime="2.94"/>
        <edge id=":Tunis_12" traveltime="2.17"/>
        <edge id=":Tunis_3" traveltime="1.39"/>
        <edge id=":Tunis_4" traveltime="2.86"/>
        <edge id=":Tunis_5" traveltime="2.77"/>
        <edge id=":Tunis_6" traveltime="2.78"/>
        <edge id=":Tunis_7" traveltime="1.07"/>
        <edge id=":Tunis_8" traveltime="1.18"/>
        <edge id=":Tunis_9" traveltime="1.27"/>
        <edge id=":Tunis_10" traveltime="2.14"/>
        <edge id=":Tunis_13" traveltime="2.14"/>
        <edge id="Ariana-Tunis" traveltime="2.07"/>
        <edge id="Bardo-Benarous" traveltime="1.33"/>
        <edge id="Bardo-Tunis" traveltime="1.33"/>
        <edge id="Benarous-Bardo" traveltime="1.33"/>
        <edge id="Benarous-Marsa" traveltime="1.33"/>
        <edge id="Benarous-Rades" traveltime="2.03"/>
        <edge id="Marsa-Benarous" traveltime="1.33"/>
        <edge id="Marsa-Tunis" traveltime="1.33"/>
        <edge id="Rades-Benarous" traveltime="2.03"/>
        <edge id="Tunis-Ariana" traveltime="2.03"/>
        <edge id="Tunis-Bardo" traveltime="1.33"/>
        <edge id="Tunis-Marsa" traveltime="1.33"/>
    </interval>
    <interval id="device.rerouting" begin="2494.00" end="2495.00">
        <edge id=":Ariana_0" traveltime="1.28"/>
        <edge id=":Bardo_0" traveltime="0.66"/>
        <edge id=":Bardo_1" traveltime="1.27"/>
        <edge id=":Bardo_2" traveltime="2.02"/>
        <edge id=":Bardo_3" traveltime="1.68"/>
        <edge id=":Benarous_0" traveltime="1.07"/>
        <edge id=":Benarous_1" traveltime="1.18"/>
        <edge id=":Benarous_2" traveltime="1.27"/>
        <edge id=":Benarous_3" traveltime="2.14"/>
        <edge id=":Benarous_11" traveltime="2.14"/>
        <edge id=":Benarous_4" traveltime="1.07"/>
        <edge id=":Benarous_5" traveltime="2.14"/>
        <edge id=":Benarous_6" traveltime="2.11"/>
        <edge id=":Benarous_12" traveltime="2.94"/>
        <edge id=":Benarous_13" traveltime="2.17"/>
        <edge id=":Benarous_7" traveltime="1.39"/>
        <edge id=":Benarous_8" traveltime="2.86"/>
        <edge id=":Benarous_9" traveltime="2.77"/>
        <edge id=":Benarous_10" traveltime="2.78"/>
        <edge id=":Marsa_0" traveltime="2.02"/>
        <edge id=":Marsa_1" traveltime="1.68"/>
        <edge id=":Marsa_2" traveltime="0.66"/>
        <edge id=":Marsa_3" traveltime="1.27"/>
        <edge id=":Rades_0" traveltime="1.28"/>
        <edge id=":Tunis_0" traveltime="1.07"/>
        <edge id=":Tunis_1" traveltime="2.14"/>
        <edge id=":Tunis_2" traveltime="2.11"/>
        <edge id=":Tunis_11" traveltime="2.94"/>
        <edge id=":Tunis_12" traveltime="2.17"/>
        <edge id=":Tunis_3" traveltime="1.39"/>
        <edge id=":Tunis_4" traveltime="2.86"/>
        <edge id=":Tunis_5" traveltime="2.77"/>
        <edge id=":Tunis_6" traveltime="2.78"/>
        <edge id=":Tunis_7" traveltime="1.07"/>
        <edge id=":Tunis_8" traveltime="1.18"/>
        <edge id=":Tunis_9" traveltime="1.27"/>
        <edge id=":Tunis_10" traveltime="2.14"/>
        <edge id=":Tunis_13" traveltime="2.14"/>
        <edge id="Ariana-Tunis" traveltime="2.08"/>
        <edge id="Bardo-Benarous" traveltime="1.33"/>
        <edge id="Bardo-Tunis" traveltime="1.33"/>
        <edge id="Benarous-Bardo" traveltime="1.33"/>
        <edge id="Benarous-Marsa" traveltime="1.33"/>
        <edge id="Benarous-Rades" traveltime="2.03"/>
        <edge id="Marsa-Benarous" traveltime="1.33"/>
        <edge id="Marsa-Tunis" traveltime="1.33"/>
        <edge id="Rades-Benarous" traveltime="2.03"/>
        <edge id="Tunis-Ariana" traveltime="2.03"/>
        <edge id="Tunis-Bardo" traveltime="1.33"/>
        <edge id="Tunis-Marsa" traveltime="1.33"/>
    </interval>
    <interval id="device.rerouting" begin="2495.00" end="2496.00">
        <edge id=":Ariana_0" traveltime="1.28"/>
        <edge id=":Bardo_0" traveltime="0.66"/>
        <edge id=":Bardo_1" traveltime="1.27"/>
        <edge id=":Bardo_2" traveltime="2.02"/>
        <edge id=":Bardo_3" traveltime="1.68"/>
        <edge id=":Benarous_0" traveltime="1.07"/>
        <edge id=":Benarous_1" traveltime="1.18"/>
        <edge id=":Benarous_2" traveltime="1.27"/>
        <edge id=":Benarous_3" traveltime="2.14"/>
        <edge id=":Benarous_11" traveltime="2.14"/>
        <edge id=":Benarous_4" traveltime="1.07"/>
        <edge id=":Benarous_5" traveltime="2.14"/>
        <edge id=":Benarous_6" traveltime="2.11"/>
        <edge id=":Benarous_12" traveltime="2.94"/>
        <edge id=":Benarous_13" traveltime="2.17"/>
        <edge id=":Benarous_7" traveltime="1.39"/>
        <edge id=":Benarous_8" traveltime="2.86"/>
        <edge id=":Benarous_9" traveltime="2.77"/>
        <edge id=":Benarous_10" traveltime="2.78"/>
        <edge id=":Marsa_0" traveltime="2.02"/>
        <edge id=":Marsa_1" traveltime="1.68"/>
        <edge id=":Marsa_2" traveltime="0.66"/>
        <edge id=":Marsa_3" traveltime="1.27"/>
        <edge id=":Rades_0" traveltime="1.28"/>
        <edge id=":Tunis_0" traveltime="1.07"/>
        <edge id=":Tunis_1" traveltime="2.14"/>
        <edge id=":Tunis_2" traveltime="2.11"/>
        <edge id=":Tunis_11" traveltime="2.94"/>
        <edge id=":Tunis_12" traveltime="2.17"/>
        <edge id=":Tunis_3" traveltime="1.39"/>
        <edge id=":Tunis_4" traveltime="2.86"/>
        <edge id=":Tunis_5" traveltime="2.77"/>
        <edge id=":Tunis_6" traveltime="2.78"/>
        <edge id=":Tunis_7" traveltime="1.07"/>
        <edge id=":Tunis_8" traveltime="1.18"/>
        <edge id=":Tunis_9" traveltime="1.27"/>
        <edge id=":Tunis_10" traveltime="2.14"/>
        <edge id=":Tunis_13" traveltime="2.14"/>
        <edge id="Ariana-Tunis" traveltime="2.09"/>
        <edge id="Bardo-Benarous" traveltime="1.33"/>
        <edge id="Bardo-Tunis" traveltime="1.33"/>
        <edge id="Benarous-Bardo" traveltime="1.33"/>
        <edge id="Benarous-Marsa" traveltime="1.33"/>
        <edge id="Benarous-Rades" traveltime="2.03"/>
        <edge id="Marsa-Benarous" traveltime="1.33"/>
        <edge id="Marsa-Tunis" traveltime="1.33"/>
        <edge id="Rades-Benarous" traveltime="2.03"/>
        <edge id="Tunis-Ariana" traveltime="2.03"/>
        <edge id="Tunis-Bardo" traveltime="1.33"/>
        <edge id="Tunis-Marsa" traveltime="1.33"/>
    </interval>
    <interval id="device.rerouting" begin="2496.00" end="2497.00">
        <edge id=":Ariana_0" traveltime="1.28"/>
        <edge id=":Bardo_0" traveltime="0.66"/>
        <edge id=":Bardo_1" traveltime="1.27"/>
        <edge id=":Bardo_2" traveltime="2.02"/>
        <edge id=":Bardo_3" traveltime="1.68"/>
        <edge id=":Benarous_0" traveltime="1.07"/>
        <edge id=":Benarous_1" traveltime="1.18"/>
        <edge id=":Benarous_2" traveltime="1.27"/>
        <edge id=":Benarous_3" traveltime="2.14"/>
        <edge id=":Benarous_11" traveltime="2.14"/>
        <edge id=":Benarous_4" traveltime="1.07"/>
        <edge id=":Benarous_5" traveltime="2.14"/>
        <edge id=":Benarous_6" traveltime="2.11"/>
        <edge id=":Benarous_12" traveltime="2.94"/>
        <edge id=":Benarous_13" traveltime="2.17"/>
        <edge id=":Benarous_7" traveltime="1.39"/>
        <edge id=":Benarous_8" traveltime="2.86"/>
        <edge id=":Benarous_9" traveltime="2.77"/>
        <edge id=":Benarous_10" traveltime="2.78"/>
        <edge id=":Marsa_0" traveltime="2.02"/>
        <edge id=":Marsa_1" traveltime="1.68"/>
        <edge id=":Marsa_2" traveltime="0.66"/>
        <edge id=":Marsa_3" traveltime="1.27"/>
        <edge id=":Rades_0" traveltime="1.28"/>
        <edge id=":Tunis_0" traveltime="1.07"/>
        <edge id=":Tunis_1" traveltime="2.14"/>
        <edge id=":Tunis_2" traveltime="2.11"/>
        <edge id=":Tunis_11" traveltime="2.94"/>
        <edge id=":Tunis_12" traveltime="2.17"/>
        <edge id=":Tunis_3" traveltime="1.39"/>
        <edge id=":Tunis_4" traveltime="2.86"/>
        <edge id=":Tunis_5" traveltime="2.77"/>
        <edge id=":Tunis_6" traveltime="2.78"/>
        <edge id=":Tunis_7" traveltime="1.07"/>
        <edge id=":Tunis_8" traveltime="1.18"/>
        <edge id=":Tunis_9" traveltime="1.27"/>
        <edge id=":Tunis_10" traveltime="2.14"/>
        <edge id=":Tunis_13" traveltime="2.14"/>
        <edge id="Ariana-Tunis" traveltime="2.11"/>
        <edge id="Bardo-Benarous" traveltime="1.33"/>
        <edge id="Bardo-Tunis" traveltime="1.33"/>
        <edge id="Benarous-Bardo" traveltime="1.33"/>
        <edge id="Benarous-Marsa" traveltime="1.33"/>
        <edge id="Benarous-Rades" traveltime="2.03"/>
        <edge id="Marsa-Benarous" traveltime="1.33"/>
        <edge id="Marsa-Tunis" traveltime="1.33"/>
        <edge id="Rades-Benarous" traveltime="2.03"/>
        <edge id="Tunis-Ariana" traveltime="2.03"/>
        <edge id="Tunis-Bardo" traveltime="1.33"/>
        <edge id="Tunis-Marsa" traveltime="1.33"/>
    </interval>
    <interval id="device.rerouting" begin="2497.00" end="2498.00">
        <edge id=":Ariana_0" traveltime="1.28"/>
        <edge id=":Bardo_0" traveltime="0.66"/>
        <edge id=":Bardo_1" traveltime="1.27"/>
        <edge id=":Bardo_2" traveltime="2.02"/>
        <edge id=":Bardo_3" traveltime="1.68"/>
        <edge id=":Benarous_0" traveltime="1.07"/>
        <edge id=":Benarous_1" traveltime="1.18"/>
        <edge id=":Benarous_2" traveltime="1.27"/>
        <edge id=":Benarous_3" traveltime="2.14"/>
        <edge id=":Benarous_11" traveltime="2.14"/>
        <edge id=":Benarous_4" traveltime="1.07"/>
        <edge id=":Benarous_5" traveltime="2.14"/>
        <edge id=":Benarous_6" traveltime="2.11"/>
        <edge id=":Benarous_12" traveltime="2.94"/>
        <edge id=":Benarous_13" traveltime="2.17"/>
        <edge id=":Benarous_7" traveltime="1.39"/>
        <edge id=":Benarous_8" traveltime="2.86"/>
        <edge id=":Benarous_9" traveltime="2.77"/>
        <edge id=":Benarous_10" traveltime="2.78"/>
        <edge id=":Marsa_0" traveltime="2.02"/>
        <edge id=":Marsa_1" traveltime="1.68"/>
        <edge id=":Marsa_2" traveltime="0.66"/>
        <edge id=":Marsa_3" traveltime="1.27"/>
        <edge id=":Rades_0" traveltime="1.28"/>
        <edge id=":Tunis_0" traveltime="1.07"/>
        <edge id=":Tunis_1" traveltime="2.14"/>
        <edge id=":Tunis_2" traveltime="2.11"/>
        <edge id=":Tunis_11" traveltime="2.94"/>
        <edge id=":Tunis_12" traveltime="2.17"/>
        <edge id=":Tunis_3" traveltime="1.39"/>
        <edge id=":Tunis_4" traveltime="2.86"/>
        <edge id=":Tunis_5" traveltime="2.77"/>
        <edge id=":Tunis_6" traveltime="2.78"/>
        <edge id=":Tunis_7" traveltime="1.07"/>
        <edge id=":Tunis_8" traveltime="1.18"/>
        <edge id=":Tunis_9" traveltime="1.27"/>
        <edge id=":Tunis_10" traveltime="2.14"/>
        <edge id=":Tunis_13" traveltime="2.14"/>
        <edge id="Ariana-Tunis" traveltime="2.11"/>
        <edge id="Bardo-Benarous" traveltime="1.33"/>
        <edge id="Bardo-Tunis" traveltime="1.33"/>
        <edge id="Benarous-Bardo" traveltime="1.33"/>
        <edge id="Benarous-Marsa" traveltime="1.33"/>
        <edge id="Benarous-Rades" traveltime="2.03"/>
        <edge id="Marsa-Benarous" traveltime="1.33"/>
        <edge id="Marsa-Tunis" traveltime="1.33"/>
        <edge id="Rades-Benarous" traveltime="2.03"/>
        <edge id="Tunis-Ariana" traveltime="2.03"/>
        <edge id="Tunis-Bardo" traveltime="1.33"/>
        <edge id="Tunis-Marsa" traveltime="1.33"/>
    </interval>
    <interval id="device.rerouting" begin="2498.00" end="2499.00">
        <edge id=":Ariana_0" traveltime="1.28"/>
        <edge id=":Bardo_0" traveltime="0.66"/>
        <edge id=":Bardo_1" traveltime="1.27"/>
        <edge id=":Bardo_2" traveltime="2.02"/>
        <edge id=":Bardo_3" traveltime="1.68"/>
        <edge id=":Benarous_0" traveltime="1.07"/>
        <edge id=":Benarous_1" traveltime="1.18"/>
        <edge id=":Benarous_2" traveltime="1.27"/>
        <edge id=":Benarous_3" traveltime="2.14"/>
        <edge id=":Benarous_11" traveltime="2.14"/>
        <edge id=":Benarous_4" traveltime="1.07"/>
        <edge id=":Benarous_5" traveltime="2.14"/>
        <edge id=":Benarous_6" traveltime="2.11"/>
        <edge id=":Benarous_12" traveltime="2.94"/>
        <edge id=":Benarous_13" traveltime="2.17"/>
        <edge id=":Benarous_7" traveltime="1.39"/>
        <edge id=":Benarous_8" traveltime="2.86"/>
        <edge id=":Benarous_9" traveltime="2.77"/>
        <edge id=":Benarous_10" traveltime="2.78"/>
        <edge id=":Marsa_0" traveltime="2.02"/>
        <edge id=":Marsa_1" traveltime="1.68"/>
        <edge id=":Marsa_2" traveltime="0.66"/>
        <edge id=":Marsa_3" traveltime="1.27"/>
        <edge id=":Rades_0" traveltime="1.28"/>
        <edge id=":Tunis_0" traveltime="1.07"/>
        <edge id=":Tunis_1" traveltime="2.14"/>
        <edge id=":Tunis_2" traveltime="2.11"/>
        <edge id=":Tunis_11" traveltime="2.94"/>
        <edge id=":Tunis_12" traveltime="2.17"/>
        <edge id=":Tunis_3" traveltime="1.39"/>
        <edge id=":Tunis_4" traveltime="2.86"/>
        <edge id=":Tunis_5" traveltime="2.77"/>
        <edge id=":Tunis_6" traveltime="2.78"/>
        <edge id=":Tunis_7" traveltime="1.07"/>
        <edge id=":Tunis_8" traveltime="1.18"/>
        <edge id=":Tunis_9" traveltime="1.27"/>
        <edge id=":Tunis_10" traveltime="2.14"/>
        <edge id=":Tunis_13" traveltime="2.14"/>
        <edge id="Ariana-Tunis" traveltime="2.11"/>
        <edge id="Bardo-Benarous" traveltime="1.33"/>
        <edge id="Bardo-Tunis" traveltime="1.33"/>
        <edge id="Benarous-Bardo" traveltime="1.33"/>
        <edge id="Benarous-Marsa" traveltime="1.33"/>
        <edge id="Benarous-Rades" traveltime="2.03"/>
        <edge id="Marsa-Benarous" traveltime="1.33"/>
        <edge id="Marsa-Tunis" traveltime="1.33"/>
        <edge id="Rades-Benarous" traveltime="2.03"/>
        <edge id="Tunis-Ariana" traveltime="2.03"/>
        <edge id="Tunis-Bardo" traveltime="1.34"/>
        <edge id="Tunis-Marsa" traveltime="1.33"/>
    </interval>
    <interval id="device.rerouting" begin="2499.00" end="2500.00">
        <edge id=":Ariana_0" traveltime="1.28"/>
        <edge id=":Bardo_0" traveltime="0.66"/>
        <edge id=":Bardo_1" traveltime="1.27"/>
        <edge id=":Bardo_2" traveltime="2.02"/>
        <edge id=":Bardo_3" traveltime="1.68"/>
        <edge id=":Benarous_0" traveltime="1.07"/>
        <edge id=":Benarous_1" traveltime="1.18"/>
        <edge id=":Benarous_2" traveltime="1.27"/>
        <edge id=":Benarous_3" traveltime="2.14"/>
        <edge id=":Benarous_11" traveltime="2.14"/>
        <edge id=":Benarous_4" traveltime="1.07"/>
        <edge id=":Benarous_5" traveltime="2.14"/>
        <edge id=":Benarous_6" traveltime="2.11"/>
        <edge id=":Benarous_12" traveltime="2.94"/>
        <edge id=":Benarous_13" traveltime="2.17"/>
        <edge id=":Benarous_7" traveltime="1.39"/>