<?xml version="1.0" encoding="UTF-8"?>

<!-- generated on 01/25/20 23:32:30 by Eclipse SUMO netconvert Version 1.4.0
<configuration xmlns:xsi="http://www.w3.org/2001/XMLSchema-instance" xsi:noNamespaceSchemaLocation="http://sumo.dlr.de/xsd/netconvertConfiguration.xsd">

    <input>
        <type-files value="C:\SUMO_Downloads\Sumo\data\typemap\osmNetconvert.typ.xml,C:\SUMO_Downloads\Sumo\data\typemap\osmNetconvertShips.typ.xml,C:\SUMO_Downloads\Sumo\data\typemap\osmNetconvertBicycle.typ.xml"/>
        <osm-files value="osm_bbox.osm.xml"/>
    </input>

    <output>
        <output-file value="osm.net.xml"/>
        <output.street-names value="true"/>
        <output.original-names value="true"/>
    </output>

    <projection>
        <proj.utm value="true"/>
    </projection>

    <processing>
        <geometry.remove value="true"/>
        <roundabouts.guess value="true"/>
    </processing>

    <tls_building>
        <tls.discard-simple value="true"/>
        <tls.join value="true"/>
        <tls.guess-signals value="true"/>
        <tls.default-type value="actuated"/>
    </tls_building>

    <ramp_guessing>
        <ramps.guess value="true"/>
    </ramp_guessing>

    <junctions>
        <junctions.join value="true"/>
        <junctions.corner-detail value="5"/>
    </junctions>

    <report>
        <verbose value="true"/>
        <aggregate-warnings value="5"/>
    </report>

</configuration>
-->

<net version="1.3" junctionCornerDetail="5" limitTurnSpeed="5.50" xmlns:xsi="http://www.w3.org/2001/XMLSchema-instance" xsi:noNamespaceSchemaLocation="http://sumo.dlr.de/xsd/net_file.xsd">

    <location netOffset="-389562.46,-5819483.84" convBoundary="0.00,0.00,2486.97,1166.84" origBoundary="13.372213,52.514766,13.409154,52.524965" projParameter="+proj=utm +zone=33 +ellps=WGS84 +datum=WGS84 +units=m +no_defs"/>

    <type id="cycleway.lane" allow="bicycle" bikeLaneWidth="1.00"/>
    <type id="cycleway.lane|highway.primary" priority="12" numLanes="2" speed="27.78" disallow="tram rail_urban rail rail_electric rail_fast ship" oneway="0" bikeLaneWidth="1.00"/>
    <type id="cycleway.lane|highway.residential" priority="3" numLanes="1" speed="13.89" disallow="tram rail_urban rail rail_electric rail_fast ship" oneway="0" bikeLaneWidth="1.00"/>
    <type id="cycleway.lane|highway.secondary" priority="11" numLanes="1" speed="27.78" disallow="tram rail_urban rail rail_electric rail_fast ship" oneway="0" bikeLaneWidth="1.00"/>
    <type id="cycleway.lane|highway.tertiary" priority="10" numLanes="1" speed="22.22" disallow="tram rail_urban rail rail_electric rail_fast ship" oneway="0" bikeLaneWidth="1.00"/>
    <type id="cycleway.opposite_lane" allow="bicycle" bikeLaneWidth="1.00"/>
    <type id="cycleway.opposite_track" allow="bicycle" bikeLaneWidth="1.50"/>
    <type id="cycleway.track" allow="bicycle" bikeLaneWidth="1.50"/>
    <type id="cycleway.track|highway.primary" priority="12" numLanes="2" speed="27.78" disallow="tram rail_urban rail rail_electric rail_fast ship" oneway="0" bikeLaneWidth="1.50"/>
    <type id="cycleway.track|highway.tertiary" priority="10" numLanes="1" speed="22.22" disallow="tram rail_urban rail rail_electric rail_fast ship" oneway="0" bikeLaneWidth="1.50"/>
    <type id="highway.bridleway" priority="1" numLanes="1" speed="2.78" allow="pedestrian" oneway="1" width="2.00"/>
    <type id="highway.bus_guideway" priority="1" numLanes="1" speed="27.78" allow="bus" oneway="1"/>
    <type id="highway.cycleway" priority="1" numLanes="1" speed="8.33" allow="bicycle" oneway="0" width="1.00"/>
    <type id="highway.footway" priority="1" numLanes="1" speed="2.78" allow="pedestrian" oneway="1" width="2.00"/>
    <type id="highway.ford" priority="1" numLanes="1" speed="2.78" allow="army" oneway="0"/>
    <type id="highway.living_street" priority="2" numLanes="1" speed="2.78" disallow="tram rail_urban rail rail_electric rail_fast ship" oneway="0"/>
    <type id="highway.motorway" priority="14" numLanes="2" speed="39.44" allow="private emergency authority army vip passenger hov taxi bus coach delivery truck trailer motorcycle evehicle custom1 custom2" oneway="1"/>
    <type id="highway.motorway_link" priority="9" numLanes="1" speed="22.22" allow="private emergency authority army vip passenger hov taxi bus coach delivery truck trailer motorcycle evehicle custom1 custom2" oneway="1"/>
    <type id="highway.path" priority="1" numLanes="1" speed="2.78" allow="pedestrian bicycle" oneway="1" width="2.00"/>
    <type id="highway.pedestrian" priority="1" numLanes="1" speed="2.78" allow="pedestrian" oneway="1" width="2.00"/>
    <type id="highway.primary" priority="12" numLanes="2" speed="27.78" disallow="tram rail_urban rail rail_electric rail_fast ship" oneway="0"/>
    <type id="highway.primary_link" priority="7" numLanes="1" speed="22.22" disallow="tram rail_urban rail rail_electric rail_fast ship" oneway="0"/>
    <type id="highway.raceway" priority="15" numLanes="2" speed="83.33" allow="vip" oneway="0"/>
    <type id="highway.residential" priority="3" numLanes="1" speed="13.89" disallow="tram rail_urban rail rail_electric rail_fast ship" oneway="0"/>
    <type id="highway.secondary" priority="11" numLanes="1" speed="27.78" disallow="tram rail_urban rail rail_electric rail_fast ship" oneway="0"/>
    <type id="highway.secondary_link" priority="6" numLanes="1" speed="22.22" disallow="tram rail_urban rail rail_electric rail_fast ship" oneway="0"/>
    <type id="highway.service" priority="1" numLanes="1" speed="5.56" allow="pedestrian delivery bicycle" oneway="0"/>
    <type id="highway.stairs" priority="1" numLanes="1" speed="1.39" allow="pedestrian" oneway="1" width="2.00"/>
    <type id="highway.step" priority="1" numLanes="1" speed="1.39" allow="pedestrian" oneway="1" width="2.00"/>
    <type id="highway.steps" priority="1" numLanes="1" speed="1.39" allow="pedestrian" oneway="1" width="2.00"/>
    <type id="highway.tertiary" priority="10" numLanes="1" speed="22.22" disallow="tram rail_urban rail rail_electric rail_fast ship" oneway="0"/>
    <type id="highway.tertiary_link" priority="5" numLanes="1" speed="22.22" disallow="tram rail_urban rail rail_electric rail_fast ship" oneway="0"/>
    <type id="highway.track" priority="1" numLanes="1" speed="5.56" disallow="tram rail_urban rail rail_electric rail_fast ship" oneway="0"/>
    <type id="highway.trunk" priority="13" numLanes="2" speed="27.78" disallow="pedestrian bicycle tram rail_urban rail rail_electric rail_fast ship" oneway="0"/>
    <type id="highway.trunk_link" priority="8" numLanes="1" speed="22.22" disallow="pedestrian bicycle tram rail_urban rail rail_electric rail_fast ship" oneway="0"/>
    <type id="highway.unclassified" priority="4" numLanes="1" speed="13.89" disallow="tram rail_urban rail rail_electric rail_fast ship" oneway="0"/>
    <type id="highway.unsurfaced" priority="1" numLanes="1" speed="8.33" disallow="tram rail_urban rail rail_electric rail_fast ship" oneway="0"/>
    <type id="railway.highspeed" priority="21" numLanes="1" speed="69.44" allow="rail_fast" oneway="1"/>
    <type id="railway.light_rail" priority="19" numLanes="1" speed="27.78" allow="rail_urban" oneway="1"/>
    <type id="railway.preserved" priority="16" numLanes="1" speed="27.78" allow="rail" oneway="1"/>
    <type id="railway.rail" priority="20" numLanes="1" speed="44.44" allow="rail" oneway="1"/>
    <type id="railway.subway" priority="18" numLanes="1" speed="27.78" allow="rail_urban" oneway="1"/>
    <type id="railway.tram" priority="17" numLanes="1" speed="13.89" allow="tram" oneway="1"/>
    <type id="route.ferry" priority="2" numLanes="1" speed="10.00" allow="ship" oneway="0" width="5.00"/>
    <type id="waterway.canal" priority="1" numLanes="1" speed="10.00" allow="ship" oneway="0" width="5.00"/>
    <type id="waterway.river" priority="1" numLanes="1" speed="10.00" allow="ship" oneway="0" width="7.00"/>

    <edge id=":1075544310_0" function="internal">
        <lane id=":1075544310_0_0" index="0" disallow="tram rail_urban rail rail_electric rail_fast ship" speed="3.65" length="4.67" shape="1492.69,902.02 1493.06,900.63 1493.69,900.00 1494.58,900.12 1495.72,901.00"/>
    </edge>
    <edge id=":1130114782_0" function="internal">
        <lane id=":1130114782_0_0" index="0" allow="ship" speed="2.78" length="22.50" width="7.00" shape="1425.68,872.69 1403.40,875.82"/>
    </edge>
    <edge id=":1130114782_1" function="internal">
        <lane id=":1130114782_1_0" index="0" allow="ship" speed="2.22" length="26.12" width="5.00" shape="1425.68,872.69 1418.77,871.77 1414.66,867.63 1413.87,861.61 1416.92,855.03"/>
    </edge>
    <edge id=":1130114782_2" function="internal">
        <lane id=":1130114782_2_0" index="0" allow="ship" speed="2.78" length="10.22" width="7.00" shape="1425.68,872.69 1422.84,871.32 1421.73,869.71 1422.36,867.85 1424.71,865.76"/>
    </edge>
    <edge id=":1130114782_3" function="internal">
        <lane id=":1130114782_3_0" index="0" allow="ship" speed="2.22" length="14.15" width="7.00" shape="1420.82,858.16 1418.31,862.07 1418.12,864.64 1420.26,865.87 1424.71,865.76"/>
    </edge>
    <edge id=":1130114782_4" function="internal">
        <lane id=":1130114782_4_0" index="0" allow="ship" speed="2.22" length="25.06" width="7.00" shape="1420.82,858.16 1417.47,862.46 1412.79,868.18 1407.77,873.30 1403.40,875.82"/>
    </edge>
    <edge id=":1130114782_5" function="internal">
        <lane id=":1130114782_5_0" index="0" allow="ship" speed="1.67" length="7.30" width="5.00" shape="1420.82,858.16 1418.67,858.84 1417.31,858.55 1416.72,857.28 1416.92,855.03"/>
    </edge>
    <edge id=":1130114782_6" function="internal">
        <lane id=":1130114782_6_0" index="0" allow="ship" speed="2.22" length="20.37" width="5.00" shape="1402.39,868.89 1406.31,866.97 1410.34,863.15 1414.03,858.74 1416.92,855.03"/>
    </edge>
    <edge id=":1130114782_7" function="internal">
        <lane id=":1130114782_7_0" index="0" allow="ship" speed="2.78" length="22.54" width="7.00" shape="1402.39,868.89 1424.71,865.76"/>
    </edge>
    <edge id=":1130114782_8" function="internal">
        <lane id=":1130114782_8_0" index="0" allow="ship" speed="2.78" length="10.22" width="7.00" shape="1402.39,868.89 1405.24,870.25 1406.36,871.85 1405.74,873.71 1403.40,875.82"/>
    </edge>
    <edge id=":1157325170_0" function="internal">
        <lane id=":1157325170_0_0" index="0" allow="tram" speed="13.89" length="5.44" shape="2133.65,679.66 2136.91,675.30"/>
    </edge>
    <edge id=":1157325174_0" function="internal">
        <lane id=":1157325174_0_0" index="0" allow="bicycle" speed="13.89" length="4.97" width="1.50" shape="2149.60,683.88 2146.59,687.78"/>
        <lane id=":1157325174_0_1" index="1" disallow="bicycle tram rail_urban rail rail_electric rail_fast ship" speed="13.89" length="4.97" shape="2147.75,682.43 2144.72,686.36"/>
        <lane id=":1157325174_0_2" index="2" disallow="bicycle tram rail_urban rail rail_electric rail_fast ship" speed="13.89" length="4.97" shape="2145.24,680.45 2142.18,684.41"/>
    </edge>
    <edge id=":1210473765_0" function="internal">
        <lane id=":1210473765_0_0" index="0" disallow="tram rail_urban rail rail_electric rail_fast ship" speed="3.93" length="2.16" shape="1386.20,1002.74 1385.92,1002.23 1385.54,1001.90 1385.06,1001.73 1384.49,1001.74"/>
    </edge>
    <edge id=":1210473765_1" function="internal">
        <lane id=":1210473765_1_0" index="0" allow="pedestrian delivery bicycle" speed="6.13" length="6.48" shape="1384.05,998.57 1385.77,998.56 1387.20,999.06 1388.34,1000.06 1389.18,1001.57"/>
    </edge>
    <edge id=":1210473765_2" function="internal">
        <lane id=":1210473765_2_0" index="0" disallow="tram rail_urban rail rail_electric rail_fast ship" speed="3.65" length="4.67" shape="1384.05,998.57 1385.35,999.19 1385.85,999.93 1385.57,1000.78 1384.49,1001.74"/>
    </edge>
    <edge id=":1210473819_0" function="internal">
        <lane id=":1210473819_0_0" index="0" allow="pedestrian delivery bicycle" speed="3.65" length="4.67" shape="1425.84,1108.70 1425.46,1110.09 1424.83,1110.73 1423.95,1110.60 1422.80,1109.72"/>
    </edge>
    <edge id=":1217651538_0" function="internal">
        <lane id=":1217651538_0_0" index="0" disallow="tram rail_urban rail rail_electric rail_fast ship" speed="5.17" length="5.16" shape="1510.82,715.99 1509.54,715.27 1508.36,715.10 1507.27,715.46 1506.27,716.37"/>
    </edge>
    <edge id=":1217651538_1" function="internal">
        <lane id=":1217651538_1_0" index="0" disallow="tram rail_urban rail rail_electric rail_fast ship" speed="6.87" length="10.36" shape="1510.82,715.99 1508.83,713.99 1507.98,711.82 1508.28,709.50 1509.72,707.01"/>
    </edge>
    <edge id=":1217651538_2" function="internal">
        <lane id=":1217651538_2_0" index="0" allow="pedestrian delivery bicycle" speed="3.65" length="4.67" shape="1510.82,715.99 1510.34,714.63 1510.50,713.75 1511.30,713.35 1512.74,713.43"/>
    </edge>
    <edge id=":1217651538_3" function="internal">
        <lane id=":1217651538_3_0" index="0" allow="pedestrian delivery bicycle" speed="5.03" length="5.06" shape="1512.19,709.05 1511.49,710.26 1511.34,711.39 1511.76,712.45 1512.74,713.43"/>
    </edge>
    <edge id=":1217651538_4" function="internal">
        <lane id=":1217651538_4_0" index="0" disallow="tram rail_urban rail rail_electric rail_fast ship" speed="8.33" length="9.42" shape="1512.19,709.05 1506.27,716.37"/>
    </edge>
    <edge id=":1217651538_5" function="internal">
        <lane id=":1217651538_5_0" index="0" disallow="tram rail_urban rail rail_electric rail_fast ship" speed="3.65" length="2.34" shape="1512.19,709.05 1510.81,709.47 1509.93,709.26"/>
    </edge>
    <edge id=":1217651538_9" function="internal">
        <lane id=":1217651538_9_0" index="0" disallow="tram rail_urban rail rail_electric rail_fast ship" speed="3.65" length="2.34" shape="1509.93,709.26 1509.57,708.45 1509.72,707.01"/>
    </edge>
    <edge id=":1217651538_6" function="internal">
        <lane id=":1217651538_6_0" index="0" disallow="tram rail_urban rail rail_electric rail_fast ship" speed="8.33" length="9.45" shape="1503.78,714.36 1509.72,707.01"/>
    </edge>
    <edge id=":1217651538_7" function="internal">
        <lane id=":1217651538_7_0" index="0" allow="pedestrian delivery bicycle" speed="6.95" length="5.02" shape="1503.78,714.36 1505.79,712.52 1507.95,711.75"/>
    </edge>
    <edge id=":1217651538_8" function="internal">
        <lane id=":1217651538_8_0" index="0" disallow="tram rail_urban rail rail_electric rail_fast ship" speed="3.65" length="2.34" shape="1503.78,714.36 1505.16,713.93 1506.03,714.12"/>
    </edge>
    <edge id=":1217651538_10" function="internal">
        <lane id=":1217651538_10_0" index="0" allow="pedestrian delivery bicycle" speed="6.95" length="5.17" shape="1507.95,711.75 1510.26,712.05 1512.74,713.43"/>
    </edge>
    <edge id=":1217651538_11" function="internal">
        <lane id=":1217651538_11_0" index="0" disallow="tram rail_urban rail rail_electric rail_fast ship" speed="3.65" length="2.34" shape="1506.03,714.12 1506.40,714.94 1506.27,716.37"/>
    </edge>
    <edge id=":1371317063_0" function="internal">
        <lane id=":1371317063_0_0" index="0" disallow="tram rail_urban rail rail_electric rail_fast ship" speed="8.33" length="5.29" shape="1655.62,502.66 1651.06,499.96"/>
    </edge>
    <edge id=":1371317063_1" function="internal">
        <lane id=":1371317063_1_0" index="0" disallow="tram rail_urban rail rail_electric rail_fast ship" speed="3.65" length="4.67" shape="1655.62,502.66 1654.98,501.36 1655.03,500.47 1655.78,499.98 1657.22,499.88"/>
    </edge>
    <edge id=":1371317063_2" function="internal">
        <lane id=":1371317063_2_0" index="0" disallow="tram rail_urban rail rail_electric rail_fast ship" speed="8.33" length="5.25" shape="1652.70,497.21 1657.22,499.88"/>
    </edge>
    <edge id=":1371317063_3" function="internal">
        <lane id=":1371317063_3_0" index="0" disallow="tram rail_urban rail rail_electric rail_fast ship" speed="3.65" length="4.67" shape="1652.70,497.21 1653.32,498.51 1653.26,499.40 1652.50,499.89 1651.06,499.96"/>
    </edge>
    <edge id=":1419121873_0" function="internal">
        <lane id=":1419121873_0_0" index="0" disallow="tram rail_urban rail rail_electric rail_fast ship" speed="3.65" length="4.67" shape="1242.21,199.78 1243.10,198.65 1243.93,198.31 1244.69,198.77 1245.40,200.03"/>
    </edge>
    <edge id=":1447185655_0" function="internal">
        <lane id=":1447185655_0_0" index="0" disallow="tram rail_urban rail rail_electric rail_fast ship" speed="3.65" length="4.67" shape="1020.47,858.96 1020.14,857.55 1020.39,856.69 1021.23,856.38 1022.65,856.61"/>
    </edge>
    <edge id=":1449754450_0" function="internal">
        <lane id=":1449754450_0_0" index="0" allow="pedestrian delivery bicycle" speed="4.93" length="5.13" shape="1597.51,511.67 1596.12,511.32 1595.00,511.52 1594.15,512.28 1593.56,513.58"/>
    </edge>
    <edge id=":1449754450_1" function="internal">
        <lane id=":1449754450_1_0" index="0" allow="pedestrian delivery bicycle" speed="5.56" length="9.44" shape="1597.51,511.67 1588.77,508.10"/>
    </edge>
    <edge id=":1449754450_2" function="internal">
        <lane id=":1449754450_2_0" index="0" allow="pedestrian delivery bicycle" speed="3.65" length="4.67" shape="1597.51,511.67 1596.70,510.47 1596.63,509.58 1597.31,508.99 1598.72,508.70"/>
    </edge>
    <edge id=":1449754450_3" function="internal">
        <lane id=":1449754450_3_0" index="0" allow="pedestrian delivery bicycle" speed="5.56" length="9.44" shape="1589.98,505.14 1598.72,508.70"/>
    </edge>
    <edge id=":1449754450_4" function="internal">
        <lane id=":1449754450_4_0" index="0" allow="pedestrian delivery bicycle" speed="5.56" length="10.22" shape="1589.98,505.14 1592.23,506.49 1593.57,508.35 1594.02,510.71 1593.56,513.58"/>
    </edge>
    <edge id=":1449754450_5" function="internal">
        <lane id=":1449754450_5_0" index="0" allow="pedestrian delivery bicycle" speed="3.65" length="4.67" shape="1589.98,505.14 1590.79,506.33 1590.86,507.22 1590.19,507.81 1588.77,508.10"/>
    </edge>
    <edge id=":1449754450_6" function="internal">
        <lane id=":1449754450_6_0" index="0" allow="pedestrian delivery bicycle" speed="5.41" length="5.45" shape="1590.49,512.69 1590.76,511.10 1590.56,509.80 1589.90,508.80 1588.77,508.10"/>
    </edge>
    <edge id=":1449754450_7" function="internal">
        <lane id=":1449754450_7_0" index="0" allow="pedestrian delivery bicycle" speed="5.56" length="10.70" shape="1590.49,512.69 1591.72,509.97 1593.50,508.41 1595.83,507.98 1598.72,508.70"/>
    </edge>
    <edge id=":1449754450_8" function="internal">
        <lane id=":1449754450_8_0" index="0" allow="pedestrian delivery bicycle" speed="3.65" length="4.67" shape="1590.49,512.69 1591.59,511.76 1592.47,511.60 1593.13,512.20 1593.56,513.58"/>
    </edge>
    <edge id=":1457124706_0" function="internal">
        <lane id=":1457124706_0_0" index="0" allow="pedestrian delivery bicycle" speed="3.65" length="4.67" shape="1577.68,458.09 1578.60,456.97 1579.43,456.65 1580.19,457.13 1580.86,458.40"/>
    </edge>
    <edge id=":1457124739_0" function="internal">
        <lane id=":1457124739_0_0" index="0" allow="pedestrian delivery bicycle" speed="5.56" length="8.81" shape="1578.02,503.71 1575.99,502.55 1574.62,501.00 1573.89,499.06 1573.82,496.73"/>
    </edge>
    <edge id=":1457124739_1" function="internal">
        <lane id=":1457124739_1_0" index="0" allow="pedestrian delivery bicycle" speed="3.65" length="4.67" shape="1578.02,503.71 1577.21,502.52 1577.14,501.62 1577.82,501.03 1579.23,500.75"/>
    </edge>
    <edge id=":1457124739_2" function="internal">
        <lane id=":1457124739_2_0" index="0" allow="pedestrian delivery bicycle" speed="5.44" length="4.67" shape="1577.00,497.05 1577.04,498.28 1577.43,499.31 1578.16,500.13 1579.23,500.75"/>
    </edge>
    <edge id=":1457124739_3" function="internal">
        <lane id=":1457124739_3_0" index="0" allow="pedestrian delivery bicycle" speed="3.65" length="4.67" shape="1577.00,497.05 1576.09,498.16 1575.25,498.48 1574.50,498.00 1573.82,496.73"/>
    </edge>
    <edge id=":1457124764_0" function="internal">
        <lane id=":1457124764_0_0" index="0" allow="pedestrian delivery bicycle" speed="3.65" length="4.67" shape="1619.38,517.14 1620.19,518.34 1620.26,519.23 1619.59,519.82 1618.17,520.11"/>
    </edge>
    <edge id=":1472911019_0" function="internal">
        <lane id=":1472911019_0_0" index="0" allow="bicycle" speed="13.89" length="4.99" width="1.50" shape="2011.73,452.22 2007.45,449.61"/>
        <lane id=":1472911019_0_1" index="1" disallow="tram rail_urban rail rail_electric rail_fast ship" speed="13.89" length="4.99" shape="2012.95,450.21 2008.68,447.61"/>
        <lane id=":1472911019_0_2" index="2" disallow="tram rail_urban rail rail_electric rail_fast ship" speed="13.89" length="4.99" shape="2014.61,447.47 2010.35,444.88"/>
    </edge>
    <edge id=":1473258656_0" function="internal">
        <lane id=":1473258656_0_0" index="0" allow="pedestrian delivery bicycle" speed="4.17" length="5.46" shape="1793.13,587.14 1791.90,586.62 1790.70,586.65 1789.53,587.24 1788.38,588.38"/>
    </edge>
    <edge id=":1473258656_1" function="internal">
        <lane id=":1473258656_1_0" index="0" disallow="tram rail_urban rail rail_electric rail_fast ship" speed="2.78" length="9.44" shape="1793.13,587.14 1785.19,582.04"/>
    </edge>
    <edge id=":1473258656_2" function="internal">
        <lane id=":1473258656_2_0" index="0" disallow="tram rail_urban rail rail_electric rail_fast ship" speed="2.78" length="2.34" shape="1793.13,587.14 1792.55,585.82 1792.65,584.93"/>
    </edge>
    <edge id=":1473258656_9" function="internal">
        <lane id=":1473258656_9_0" index="0" disallow="tram rail_urban rail rail_electric rail_fast ship" speed="2.78" length="2.34" shape="1792.65,584.93 1793.42,584.47 1794.86,584.45"/>
    </edge>
    <edge id=":1473258656_3" function="internal">
        <lane id=":1473258656_3_0" index="0" disallow="tram rail_urban rail rail_electric rail_fast ship" speed="2.78" length="9.44" shape="1786.92,579.35 1794.86,584.45"/>
    </edge>
    <edge id=":1473258656_4" function="internal">
        <lane id=":1473258656_4_0" index="0" allow="pedestrian delivery bicycle" speed="4.17" length="5.17" shape="1786.92,579.35 1789.17,581.30 1790.08,583.28"/>
    </edge>
    <edge id=":1473258656_5" function="internal">
        <lane id=":1473258656_5_0" index="0" disallow="tram rail_urban rail rail_electric rail_fast ship" speed="2.78" length="2.34" shape="1786.92,579.35 1787.49,580.67 1787.40,581.56"/>
    </edge>
    <edge id=":1473258656_10" function="internal">
        <lane id=":1473258656_10_0" index="0" allow="pedestrian delivery bicycle" speed="4.17" length="5.55" shape="1790.08,583.28 1790.16,583.45 1789.90,585.81 1788.38,588.38"/>
    </edge>
    <edge id=":1473258656_11" function="internal">
        <lane id=":1473258656_11_0" index="0" disallow="tram rail_urban rail rail_electric rail_fast ship" speed="2.78" length="2.34" shape="1787.40,581.56 1786.63,582.01 1785.19,582.04"/>
    </edge>
    <edge id=":1473258656_6" function="internal">
        <lane id=":1473258656_6_0" index="0" disallow="tram rail_urban rail rail_electric rail_fast ship" speed="4.17" length="5.13" shape="1785.89,586.37 1786.62,585.14 1786.74,584.01 1786.27,582.97 1785.19,582.04"/>
    </edge>
    <edge id=":1473258656_7" function="internal">
        <lane id=":1473258656_7_0" index="0" disallow="tram rail_urban rail rail_electric rail_fast ship" speed="4.17" length="10.22" shape="1785.89,586.37 1787.98,584.35 1790.17,583.36 1792.46,583.39 1794.86,584.45"/>
    </edge>
    <edge id=":1473258656_8" function="internal">
        <lane id=":1473258656_8_0" index="0" allow="pedestrian delivery bicycle" speed="3.65" length="4.67" shape="1785.89,586.37 1787.26,585.94 1788.14,586.13 1788.51,586.94 1788.38,588.38"/>
    </edge>
    <edge id=":1473258657_0" function="internal">
        <lane id=":1473258657_0_0" index="0" allow="pedestrian bicycle" speed="2.78" length="5.01" width="2.00" shape="1774.63,585.91 1778.80,588.68"/>
    </edge>
    <edge id=":1473258657_1" function="internal">
        <lane id=":1473258657_1_0" index="0" allow="pedestrian bicycle" speed="2.78" length="4.12" width="2.00" shape="1775.20,589.37 1776.02,588.57 1776.89,588.18 1777.82,588.22 1778.80,588.68"/>
    </edge>
    <edge id=":1473258660_0" function="internal">
        <lane id=":1473258660_0_0" index="0" allow="pedestrian bicycle" speed="4.17" length="4.58" width="2.00" shape="1786.56,590.69 1786.04,591.71 1786.05,592.68 1786.59,593.62 1787.65,594.51"/>
    </edge>
    <edge id=":1473258660_1" function="internal">
        <lane id=":1473258660_1_0" index="0" allow="pedestrian delivery bicycle" speed="5.56" length="5.39" shape="1786.56,590.69 1783.33,595.00"/>
    </edge>
    <edge id=":1473258660_2" function="internal">
        <lane id=":1473258660_2_0" index="0" allow="pedestrian delivery bicycle" speed="3.65" length="2.34" shape="1786.56,590.69 1785.20,591.17 1784.32,591.01"/>
    </edge>
    <edge id=":1473258660_9" function="internal">
        <lane id=":1473258660_9_0" index="0" allow="pedestrian delivery bicycle" speed="3.65" length="2.34" shape="1784.32,591.01 1783.92,590.21 1784.00,588.77"/>
    </edge>
    <edge id=":1473258660_3" function="internal">
        <lane id=":1473258660_3_0" index="0" allow="pedestrian delivery bicycle" speed="4.17" length="4.88" shape="1779.69,589.26 1780.94,589.88 1782.08,590.01 1783.10,589.64 1784.00,588.77"/>
    </edge>
    <edge id=":1473258660_4" function="internal">
        <lane id=":1473258660_4_0" index="0" allow="pedestrian bicycle" speed="2.78" length="9.53" width="2.00" shape="1779.69,589.26 1787.65,594.51"/>
    </edge>
    <edge id=":1473258660_5" function="internal">
        <lane id=":1473258660_5_0" index="0" allow="pedestrian delivery bicycle" speed="4.17" length="7.50" shape="1779.69,589.26 1781.91,590.94 1783.25,592.45 1783.73,593.81 1783.33,595.00"/>
    </edge>
    <edge id=":1473258660_6" function="internal">
        <lane id=":1473258660_6_0" index="0" allow="pedestrian delivery bicycle" speed="5.56" length="5.39" shape="1780.77,593.08 1784.00,588.77"/>
    </edge>
    <edge id=":1473258660_7" function="internal">
        <lane id=":1473258660_7_0" index="0" allow="pedestrian bicycle" speed="4.17" length="2.71" width="2.00" shape="1780.77,593.08 1781.78,592.39 1783.26,592.40"/>
    </edge>
    <edge id=":1473258660_8" function="internal">
        <lane id=":1473258660_8_0" index="0" allow="pedestrian delivery bicycle" speed="3.65" length="2.34" shape="1780.77,593.08 1782.13,592.60 1783.01,592.76"/>
    </edge>
    <edge id=":1473258660_10" function="internal">
        <lane id=":1473258660_10_0" index="0" allow="pedestrian bicycle" speed="4.17" length="4.88" width="2.00" shape="1783.26,592.40 1785.22,593.11 1787.65,594.51"/>
    </edge>
    <edge id=":1473258660_11" function="internal">
        <lane id=":1473258660_11_0" index="0" allow="pedestrian delivery bicycle" speed="3.65" length="2.34" shape="1783.01,592.76 1783.41,593.56 1783.33,595.00"/>
    </edge>
    <edge id=":1473258664_0" function="internal">
        <lane id=":1473258664_0_0" index="0" allow="pedestrian delivery bicycle" speed="4.17" length="5.07" shape="1851.26,624.52 1850.00,623.91 1848.86,623.86 1847.86,624.39 1846.98,625.48"/>
    </edge>
    <edge id=":1473258664_1" function="internal">
        <lane id=":1473258664_1_0" index="0" disallow="tram rail_urban rail rail_electric rail_fast ship" speed="2.78" length="9.45" shape="1851.26,624.52 1843.37,619.32"/>
    </edge>
    <edge id=":1473258664_2" function="internal">
        <lane id=":1473258664_2_0" index="0" disallow="tram rail_urban rail rail_electric rail_fast ship" speed="2.78" length="2.34" shape="1851.26,624.52 1850.71,623.19 1850.83,622.30"/>
    </edge>
    <edge id=":1473258664_9" function="internal">
        <lane id=":1473258664_9_0" index="0" disallow="tram rail_urban rail rail_electric rail_fast ship" speed="2.78" length="2.34" shape="1850.83,622.30 1851.61,621.87 1853.06,621.88"/>
    </edge>
    <edge id=":1473258664_3" function="internal">
        <lane id=":1473258664_3_0" index="0" disallow="tram rail_urban rail rail_electric rail_fast ship" speed="2.78" length="9.54" shape="1845.09,616.62 1853.06,621.88"/>
    </edge>
    <edge id=":1473258664_4" function="internal">
        <lane id=":1473258664_4_0" index="0" allow="pedestrian delivery bicycle" speed="4.17" length="5.04" shape="1845.09,616.62 1847.15,618.42 1848.15,620.49"/>
    </edge>
    <edge id=":1473258664_5" function="internal">
        <lane id=":1473258664_5_0" index="0" disallow="tram rail_urban rail rail_electric rail_fast ship" speed="2.78" length="2.34" shape="1845.09,616.62 1845.67,617.94 1845.58,618.83"/>
    </edge>
    <edge id=":1473258664_10" function="internal">
        <lane id=":1473258664_10_0" index="0" allow="pedestrian delivery bicycle" speed="4.17" length="5.21" shape="1848.15,620.49 1848.09,622.84 1846.98,625.48"/>
    </edge>
    <edge id=":1473258664_11" function="internal">
        <lane id=":1473258664_11_0" index="0" disallow="tram rail_urban rail rail_electric rail_fast ship" speed="2.78" length="2.34" shape="1845.58,618.83 1844.81,619.29 1843.37,619.32"/>
    </edge>
    <edge id=":1473258664_6" function="internal">
        <lane id=":1473258664_6_0" index="0" disallow="tram rail_urban rail rail_electric rail_fast ship" speed="4.17" length="5.20" shape="1844.23,623.84 1844.81,622.48 1844.87,621.27 1844.38,620.22 1843.37,619.32"/>
    </edge>
    <edge id=":1473258664_7" function="internal">
        <lane id=":1473258664_7_0" index="0" disallow="tram rail_urban rail rail_electric rail_fast ship" speed="4.17" length="10.46" shape="1844.23,623.84 1846.04,621.59 1848.12,620.51 1850.46,620.61 1853.06,621.88"/>