<?xml version="1.0" encoding="UTF-8"?>

<!-- generated on 01/25/20 23:32:36 by Eclipse SUMO duarouter Version 1.4.0
<configuration xmlns:xsi="http://www.w3.org/2001/XMLSchema-instance" xsi:noNamespaceSchemaLocation="http://sumo.dlr.de/xsd/duarouterConfiguration.xsd">

    <input>
        <net-file value="c:\SUMO_Downloads\Sumo\tools\2020-01-25-23-32-09\osm.net.xml"/>
        <route-files value="c:\SUMO_Downloads\Sumo\tools\2020-01-25-23-32-09\osm.rail.trips.xml"/>
    </input>

    <output>
        <output-file value="c:\SUMO_Downloads\Sumo\tools\2020-01-25-23-32-09\osm.rail.trips.xml.tmp"/>
        <write-trips value="true"/>
    </output>

    <time>
        <begin value="0"/>
        <end value="3600.0"/>
    </time>

    <report>
        <no-warnings value="true"/>
        <ignore-errors value="true"/>
        <no-step-log value="true"/>
    </report>

</configuration>
-->

<routes xmlns:xsi="http://www.w3.org/2001/XMLSchema-instance" xsi:noNamespaceSchemaLocation="http://sumo.dlr.de/xsd/routes_file.xsd"/>
