<?xml version="1.0" encoding="UTF-8"?>

<!-- generated on 01/25/20 23:32:31 by Eclipse SUMO polyconvert Version 1.4.0
<configuration xmlns:xsi="http://www.w3.org/2001/XMLSchema-instance" xsi:noNamespaceSchemaLocation="http://sumo.dlr.de/xsd/polyconvertConfiguration.xsd">

    <input>
        <net-file value="osm.net.xml"/>
        <osm-files value="osm_bbox.osm.xml"/>
        <osm.keep-full-type value="true"/>
        <type-file value="C:\SUMO_Downloads\Sumo\data\typemap\osmPolyconvert.typ.xml"/>
    </input>

    <output>
        <output-file value="osm.poly.xml"/>
    </output>

    <processing>
        <poi-layer-offset value="5"/>
    </processing>

    <report>
        <verbose value="true"/>
    </report>

</configuration>
-->

<additional xmlns:xsi="http://www.w3.org/2001/XMLSchema-instance" xsi:noNamespaceSchemaLocation="http://sumo.dlr.de/xsd/additional_file.xsd">
    <location netOffset="-389562.46,-5819483.84" convBoundary="-6129.43,-4102.99,4414.86,3775.35" origBoundary="13.282814,52.477280,13.436728,52.548335" projParameter="+proj=utm +zone=33 +ellps=WGS84 +datum=WGS84 +units=m +no_defs"/>

    <poly id="100950874" type="building.commercial" color="255,230,230" fill="1" layer="-1.00" shape="2085.861041,845.090462 2066.531240,836.549336 2062.386371,826.225625 2074.119327,805.858411 2087.474252,813.085173 2085.861041,845.090462"/>
    <poly id="100950876" type="building.commercial" color="255,230,230" fill="1" layer="-1.00" shape="2124.198570,786.857354 2113.045332,805.520220 2110.630021,809.557327 2111.197971,853.643436 2111.266465,859.194593 2112.635520,863.092351 2114.591247,866.509774 2117.228481,869.745208 2122.223956,873.729670 2125.401180,875.295153 2145.213318,882.946757 2177.038451,815.343995 2124.198570,786.857354"/>
    <poly id="100950877" type="building.commercial" color="255,230,230" fill="1" layer="-1.00" shape="2156.048103,821.950501 2136.353627,863.825177 2130.101735,861.648904 2127.425302,860.016703 2125.821583,857.170126 2124.770629,851.696337 2126.479909,820.033900 2151.880749,820.117574 2156.048103,821.950501"/>
    <poly id="100950878" type="building.commercial" color="255,230,230" fill="1" layer="-1.00" shape="2094.833269,863.152346 2100.154207,849.325426 2101.572733,817.413473 2101.493155,813.509446 2099.950572,808.825470 2097.463956,804.729886 2093.511305,800.944927 2089.561743,799.140616 2068.071688,787.765225 2048.817291,821.896848 2047.044102,827.956128 2047.178157,833.706132 2048.869703,840.211723 2055.724200,847.838211 2094.833269,863.152346"/>
    <poly id="104786904" type="natural.grassland" color="140,196,107" fill="1" layer="-4.00" shape="1446.157685,483.438627 1451.494925,421.594817 1432.098166,419.934475 1426.754382,481.778461 1446.157685,483.438627"/>
    <poly id="104786906" type="building.yes" color="255,230,230" fill="1" layer="-1.00" shape="1460.349372,587.978627 1523.673615,599.567066 1516.668968,609.659829 1512.981052,614.448842 1508.507803,620.245686 1506.601254,622.725045 1492.502716,621.803480 1481.123173,621.055145 1481.723936,613.886704 1503.231131,615.555910 1504.561583,608.538158 1464.702808,601.813571 1463.185980,602.893321 1461.336913,612.226049 1462.367751,613.404897 1462.166135,614.410871 1461.319699,614.808046 1461.098480,619.508835 1457.611341,619.285984 1454.307384,619.059059 1454.708632,616.958132 1458.567303,597.576929 1460.176148,587.515121 1460.349372,587.978627"/>
    <poly id="104786907" type="building.residential" color="255,230,230" fill="1" layer="-1.00" shape="1489.122308,569.623265 1487.847129,582.481805 1448.157191,575.119313 1451.255836,542.935971 1464.883896,544.057064 1466.079904,530.387961 1479.387631,531.449457 1478.250341,543.793059 1470.432541,542.965504 1469.147831,556.614324 1477.043314,557.273234 1476.582179,562.480103 1476.117519,568.443730 1489.122308,569.623265"/>
    <poly id="104786910" type="building.yes" color="255,230,230" fill="1" layer="-1.00" shape="1566.835663,596.415249 1579.507105,579.853851 1563.411510,567.270193 1564.117433,566.353161 1563.336929,565.747364 1566.411272,561.750966 1567.122447,562.291539 1568.065942,561.068781 1572.022986,564.107686 1572.781705,563.122717 1589.563162,576.024991 1596.822771,566.705608 1606.876549,569.798224 1586.706364,595.917930 1579.218261,605.643004 1566.835663,596.415249"/>
    <poly id="104786915" type="building.yes" color="255,230,230" fill="1" layer="-1.00" shape="1564.348238,589.560281 1550.820559,587.145880 1549.703646,593.391062 1563.206148,595.895041 1564.348238,589.560281"/>
    <poly id="104786916" type="building.yes" color="255,230,230" fill="1" layer="-1.00" shape="1592.641704,521.820630 1587.801520,538.908970 1625.882191,549.913701 1630.683125,535.942011 1628.017959,534.832820 1625.463661,532.908851 1622.761447,530.743361 1619.061664,529.200930 1604.750964,525.156882 1592.641704,521.820630"/>
    <poly id="104991245" type="building.yes" color="255,230,230" fill="1" layer="-1.00" shape="1471.774732,904.995902 1484.577457,900.794108 1486.441383,906.472250 1486.879381,906.328973 1492.310748,922.866229 1493.139748,922.602977 1497.282213,935.207469 1496.413005,935.493869 1501.852086,952.075472 1488.119472,956.576106 1485.330887,948.080985 1484.738097,948.283344 1481.825760,939.412638 1482.418551,939.210279 1478.821482,928.240556 1478.275683,928.419615 1475.399472,919.648257 1476.012618,919.445444 1474.585676,915.104028 1473.224243,910.961452 1473.675561,910.806751 1471.774732,904.995902"/>
    <poly id="104991246" type="building.yes" color="255,230,230" fill="1" layer="-1.00" shape="1374.939163,948.947073 1373.656640,945.303509 1388.876434,939.923733 1390.170534,943.478021 1374.939163,948.947073"/>
    <poly id="105187865" type="building.office" color="255,230,230" fill="1" layer="-1.00" shape="984.881677,468.921799 1083.300463,476.426693 1076.230158,543.740080 1074.266774,565.249208 1072.292079,586.858741 934.553420,575.437095 924.406941,574.595709 888.486162,571.615642 895.536095,495.010724 930.902147,497.747329 930.163949,506.020578 905.050159,503.989412 902.954713,529.273874 927.966357,531.296181 927.438170,537.728666 927.010294,542.879225 905.080357,541.155217 902.988986,566.317186 924.873061,568.120100 925.808189,556.815714 936.309245,557.727070 935.349014,568.820588 950.819028,570.043730 951.939784,556.109068 963.045161,557.029227 963.477372,551.767299 985.490884,553.589847 984.688446,563.244354 1048.572556,568.515928 1052.799168,517.657063 1063.673181,518.549236 1064.786341,505.171166 1015.135089,501.072455 1016.055062,489.990988 1001.331883,488.784327 999.261653,513.700952 981.287760,512.222034 984.101384,478.353256 984.881677,468.921799"/>
    <poly id="105187865#1" type="landuse.commercial" color="209,209,204" fill="1" layer="-3.00" shape="984.881677,468.921799 1083.300463,476.426693 1076.230158,543.740080 1074.266774,565.249208 1072.292079,586.858741 934.553420,575.437095 924.406941,574.595709 888.486162,571.615642 895.536095,495.010724 930.902147,497.747329 930.163949,506.020578 905.050159,503.989412 902.954713,529.273874 927.966357,531.296181 927.438170,537.728666 927.010294,542.879225 905.080357,541.155217 902.988986,566.317186 924.873061,568.120100 925.808189,556.815714 936.309245,557.727070 935.349014,568.820588 950.819028,570.043730 951.939784,556.109068 963.045161,557.029227 963.477372,551.767299 985.490884,553.589847 984.688446,563.244354 1048.572556,568.515928 1052.799168,517.657063 1063.673181,518.549236 1064.786341,505.171166 1015.135089,501.072455 1016.055062,489.990988 1001.331883,488.784327 999.261653,513.700952 981.287760,512.222034 984.101384,478.353256 984.881677,468.921799"/>
    <poly id="105733615" type="building.yes" color="255,230,230" fill="1" layer="-1.00" shape="1096.522482,971.925160 1097.956913,953.788393 1110.877248,954.568181 1109.172163,973.656838 1096.522482,971.925160"/>
    <poly id="105733616" type="building.residential" color="255,230,230" fill="1" layer="-1.00" shape="1042.902976,970.151604 1042.707871,972.659692 1042.513014,975.178902 1041.018043,975.101022 1020.859727,973.292477 1011.787209,972.482581 1006.040035,971.954476 1004.210406,971.783937 997.035103,971.131970 989.658065,967.224108 992.202495,962.326695 992.676560,962.583164 994.992472,957.178986 1001.243016,960.488880 1005.139723,960.824651 1026.431034,962.607819 1027.008972,955.361910 1027.608831,947.881829 1027.804427,945.395985 1029.001157,945.491652 1041.443838,946.459973 1043.369445,946.672893 1044.874439,946.895210 1044.651946,949.392782 1044.429951,951.912598 1042.940762,951.790077 1042.679155,954.967312 1042.593965,956.015218 1041.434394,970.039751 1042.902976,970.151604"/>
    <poly id="105733620" type="building.commercial" color="255,230,230" fill="1" layer="-1.00" shape="1038.949451,1000.084381 1009.681042,997.600329 1011.787209,972.482581 1020.859727,973.292477 1041.018043,975.101022 1039.980476,987.598338 1038.949451,1000.084381"/>
    <poly id="105733622" type="building.yes" color="255,230,230" fill="1" layer="-1.00" shape="1101.799473,986.050768 1117.297984,987.396157 1118.273034,974.521919 1111.588937,973.981223 1111.339853,976.201193 1108.995469,975.775042 1109.172163,973.656838 1096.522482,971.925160 1095.646257,983.751195 1094.188202,984.718477 1096.285244,987.442446 1101.626915,987.746028 1101.799473,986.050768"/>
    <poly id="105733628" type="building.residential" color="255,230,230" fill="1" layer="-1.00" shape="1037.050590,1022.638115 1007.789594,1020.176169 1009.355201,1001.546813 1009.681042,997.600329 1038.949451,1000.084381 1038.841849,1001.344213 1039.691836,1001.414246 1039.427005,1004.446893 1038.583802,1004.376709 1037.999893,1011.355686 1037.404407,1018.423944 1038.247607,1018.494128 1037.983027,1021.537897 1037.146611,1021.467562 1037.050590,1022.638115"/>
    <poly id="105733634" type="building.hotel" color="255,230,230" fill="1" layer="-1.00" shape="1131.604341,918.608189 1126.223713,918.082888 1124.509150,942.223713 1111.974814,941.101440 1101.884398,940.302973 1079.926372,938.756917 1078.300803,936.478661 1081.064723,903.412232 1083.029283,901.721465 1122.944002,904.947544 1132.915350,905.882246 1132.811359,906.696888 1131.604341,918.608189"/>
    <poly id="105733641" type="building.yes" color="255,230,230" fill="1" layer="-1.00" shape="1152.973778,908.071831 1147.944095,907.761227 1132.811359,906.696888 1131.604341,918.608189 1131.501673,919.177993 1153.256900,921.062639 1154.195086,910.181089 1152.973778,908.071831"/>
    <poly id="105733647" type="building.yes" color="255,230,230" fill="1" layer="-1.00" shape="1135.242204,988.842791 1117.297984,987.396157 1118.273034,974.521919 1136.511993,976.095512 1135.242204,988.842791"/>
    <poly id="105733649" type="building.office" color="255,230,230" fill="1" layer="-1.00" shape="1019.485688,872.306033 1019.746120,871.810596 1020.137440,871.401256 1020.591558,871.068406 1021.102185,870.834444 1021.648970,870.699822 1022.211559,870.664997 1022.769850,870.741545 1023.303240,870.918798 1023.791377,871.197211 1034.279311,881.578707 1047.147828,894.310625 1047.359799,894.684231 1047.504674,895.092719 1047.582205,895.524967 1045.125863,925.335267 1043.822359,941.121188 1043.369445,946.672893 1041.443838,946.459973 1029.001157,945.491652 1027.804427,945.395985 1027.968116,943.912345 1007.906278,933.366458 1010.761147,928.083777 997.456739,919.234131 995.775566,918.114423 995.568811,917.974383 1003.295955,903.224426 1019.485688,872.306033"/>
    <poly id="105733655" type="building.yes" color="255,230,230" fill="1" layer="-1.00" shape="1097.956913,953.788393 1098.775585,943.031901 1101.551433,943.326009 1101.884398,940.302973 1111.974814,941.101440 1110.877248,954.568181 1097.956913,953.788393"/>
    <poly id="105733781" type="building.apartments" color="255,230,230" fill="1" layer="-1.00" shape="1284.947381,1021.846518 1285.381734,1027.934798 1279.297609,1027.814483 1279.539820,1021.933674 1267.746993,1021.484397 1268.216373,1007.831411 1283.852685,1008.361930 1284.947381,1021.846518"/>
    <poly id="105733782" type="building.apartments" color="255,230,230" fill="1" layer="-1.00" shape="1267.746993,1021.484397 1267.426860,1027.522731 1265.417570,1027.511888 1265.705319,1034.938756 1265.737554,1036.384635 1259.760989,1036.217435 1259.940793,1026.320928 1260.841820,1026.245201 1261.353965,1024.253057 1259.907123,1022.070909 1249.459749,1021.691827 1248.570026,1023.492093 1248.727090,1025.970062 1248.442411,1025.987537 1248.457045,1036.080008 1242.700541,1036.041455 1243.318657,1023.887382 1244.214749,1007.153638 1268.216373,1007.831411 1267.746993,1021.484397"/>
    <poly id="105733787" type="building.apartments" color="255,230,230" fill="1" layer="-1.00" shape="1309.131252,1022.787490 1309.899490,1009.138979 1283.852685,1008.361930 1284.947381,1021.846518 1299.188380,1022.508336 1309.131252,1022.787490"/>
    <poly id="105733792" type="building.apartments" color="255,230,230" fill="1" layer="-1.00" shape="1336.789240,1023.684559 1309.131252,1022.787490 1309.899490,1009.138979 1343.661554,1010.133744 1350.643727,1030.152650 1339.380693,1033.374656 1336.789240,1023.684559"/>
    <poly id="105733797" type="building.apartments" color="255,230,230" fill="1" layer="-1.00" shape="1198.451794,1034.724934 1203.807781,1007.376035 1206.704807,1005.497602 1244.214749,1007.153638 1243.318657,1023.887382 1222.887204,1023.208001 1222.612716,1028.855853 1220.875507,1030.697282 1220.187212,1035.441894 1220.591099,1035.900248 1220.309130,1037.865008 1211.333488,1037.130481 1211.527169,1036.380607 1209.280529,1036.074634 1198.451794,1034.724934"/>
    <poly id="11548677" type="natural.water" color="181,209,209" fill="0" layer="-4.00" shape="2596.824310,-172.285704 2566.944228,-189.342882 2434.242724,-259.182069 2426.728595,-266.204802 2416.324785,-273.731312 2413.620386,-275.685766 2397.228145,-287.542334 2355.417948,-315.996830 2303.222114,-342.196541 2290.879963,-346.786845 2268.800980,-354.811984 2262.140116,-358.225730 2259.736914,-359.140763 2238.113979,-363.726292 2175.061272,-371.480177 2129.524999,-369.383173 2108.736679,-367.532595 2104.470288,-366.737216 2101.938969,-365.768779 2098.883720,-363.931931 2095.935527,-361.552197 2093.833501,-359.591767 2092.240170,-357.653714 2090.982689,-355.878874 2072.547387,-320.396995 2064.900947,-305.750868 1950.952581,-109.853534 1947.914699,-104.789966 1945.418813,-100.083355 1892.164792,6.118659 1877.570052,47.514065 1839.609676,143.429771 1831.567216,159.743117 1753.416850,311.120711 1748.695184,348.269325 1720.678416,454.002632 1700.397532,509.122875 1701.185941,510.696621 1701.261725,512.887081 1688.106732,533.987823 1686.323972,533.793729 1677.242460,550.030302 1623.209363,589.398286 1540.724645,688.698644 1529.750655,701.906374 1517.476811,716.789932 1505.355478,731.202770 1446.635139,802.580068 1449.298071,804.813099 1439.737460,816.543002 1437.041599,814.355219 1434.769060,818.378373 1429.378603,820.768400"/>
    <poly id="120456813" type="landuse.commercial" color="209,209,204" fill="1" layer="-3.00" shape="1240.374043,830.954742 1244.293915,775.095471 1175.396626,767.385056 1175.197876,770.950345 1174.793344,778.069953 1174.587562,781.624272 1173.967907,791.575109 1175.126198,791.771819 1173.985286,807.565186 1173.037918,819.559700 1172.269313,819.487827 1171.750859,828.802130 1203.498067,829.785292 1228.180321,830.202909 1240.374043,830.954742"/>
    <poly id="120456814" type="amenity.university" color="237,199,199" fill="1" layer="-1.00" shape="1255.981454,601.510396 1256.114643,602.308619 1293.193456,605.499238 1299.811418,606.097310 1327.042372,608.439391 1331.480940,554.171078 1349.751070,555.555652 1358.359951,556.242991 1361.286497,556.589535 1371.002503,557.307879 1370.418819,563.407703 1369.071246,575.744897 1368.633059,581.062545 1368.614590,581.452425 1370.771986,581.704826 1370.057365,587.106525 1370.022602,587.374362 1368.839053,599.151522 1357.425107,598.081535 1356.241208,611.060493 1394.995888,614.225679 1396.125586,614.356314 1401.510293,555.293264 1401.881812,550.333189 1402.911046,540.462305 1405.491966,505.464030 1504.603167,514.274980 1517.292541,428.009495 1524.884408,342.046589 1373.960232,328.902637 1369.364436,380.414711 1359.954535,521.166499 1352.818606,520.479730 1334.930728,520.110369 1301.187289,517.056514 1279.349190,515.184126 1278.566453,524.226103 1271.044532,523.581439 1266.178521,579.962482 1266.107676,580.742998 1264.631952,580.620106 1244.711830,578.905426 1244.069616,586.330768 1252.067606,587.020412 1252.185624,585.615696 1256.470315,585.987537 1256.346008,587.414649 1257.162139,587.485476 1255.991393,601.042813 1255.981454,601.510396"/>
    <poly id="121673258" type="landuse.construction" color="194,194,130" fill="1" layer="-3.00" shape="1834.621680,209.326781 1834.378636,210.611845 1833.882572,211.813498 1832.794847,213.273077 1831.331751,212.192757 1825.701171,220.629931 1842.337248,232.468054 1819.729807,269.412259 1806.204621,265.305675 1793.711824,268.264517 1788.956516,278.206807 1794.917848,311.924776 1798.598732,313.834974 1798.837658,323.688740 1817.660000,325.151855 1814.762079,328.854852 1827.972771,331.644241 1840.559221,335.671544 1853.584314,340.501469 1877.210893,355.055649 1898.009478,366.367707 1907.619442,355.550147 2021.653076,423.262059 2104.903121,287.032069 2118.501983,255.195730 2045.406327,209.231178 1966.171994,158.952571 1960.445917,156.653562 1953.641308,155.925183 1947.289450,158.781000 1926.127599,186.568018 1866.237710,145.732656 1861.293340,143.483200 1857.768540,148.924839 1869.467461,157.912561 1868.426223,159.326591 1868.943737,159.704586 1864.000954,166.101242 1866.063238,167.568885 1864.739739,169.111575 1862.576740,170.450323 1860.090166,170.972801 1858.199462,170.814415 1856.413503,170.175222 1854.848870,169.108273 1852.490190,172.031483 1830.719712,202.959285 1832.191202,203.805739 1833.064865,204.632066 1833.786170,205.628685 1834.498829,207.460066 1834.621680,209.326781"/>
    <poly id="121717655" type="building.yes" color="255,230,230" fill="1" layer="-1.00" shape="1667.499914,537.416508 1675.327833,524.946638 1641.923148,504.123226 1637.630822,516.547991 1658.005393,529.248275 1656.962702,530.896067 1667.499914,537.416508"/>
    <poly id="121717767" type="leisure.park" color="207,245,201" fill="1" layer="-2.00" shape="1765.699378,624.201934 1790.532811,643.024146 1792.202651,640.883981 1791.452903,640.132808 1790.966762,639.331277 1790.712773,638.591361 1790.614335,637.825739 1790.653066,637.123839 1790.814165,636.430353 1791.170287,635.654647 1791.684426,634.964456 1792.317109,634.416295 1793.047983,634.010615 1793.802911,633.771315 1794.595216,633.686973 1795.882666,633.892093 1796.588871,634.210256 1797.188497,634.619804 1799.327706,631.912849 1801.863256,633.915215 1802.718472,632.994907 1803.562463,632.486571 1804.513155,632.198420 1805.380830,632.145791 1806.239377,632.293661 1807.150349,632.662922 1807.937102,633.246362 1808.509219,633.945840 1808.914191,634.760301 1809.114887,635.545911 1809.146465,636.357526 1809.021506,637.150359 1808.732486,637.891192 1808.067483,638.818407 1811.300100,641.339442 1809.332845,643.842280 1810.278352,645.156622 1810.489904,645.819587 1810.580074,646.518627 1810.542327,647.265015 1810.368150,647.981046 1810.070373,648.633052 1809.669349,649.220583 1809.084650,649.789933 1808.395224,650.228075 1807.587503,650.535309 1806.734880,650.654370 1806.021278,650.614560 1805.318283,650.440984 1804.419650,650.015812 1802.584884,652.371056 1820.848617,666.042400 1778.733314,721.546491 1790.012176,730.009183 1855.559789,643.929919 1784.629657,597.843437 1765.699378,624.201934"/>
    <poly id="125513279" type="building.yes" color="255,230,230" fill="1" layer="-1.00" shape="2235.888194,230.112344 2228.558301,224.343272 2224.911813,221.219089 2228.158315,216.685208 2227.813656,216.448015 2229.045360,214.740540 2258.870990,235.836138 2257.378934,238.050096 2253.842724,242.990950 2236.386299,230.535316 2235.888194,230.112344"/>
    <poly id="125513281" type="building.residential" color="255,230,230" fill="1" layer="-1.00" shape="2204.074824,244.101553 2195.629709,238.245896 2193.713238,236.919556 2200.632942,227.196922 2200.568927,227.064806 2202.715478,224.057436 2204.177030,221.999921 2205.375291,220.315434 2205.505190,220.357074 2212.457884,210.589219 2224.911813,221.219089 2228.558301,224.343272 2235.888194,230.112344 2236.386299,230.535316 2253.842724,242.990950 2257.378934,238.050096 2261.868943,241.255821 2259.267954,244.896345 2262.930489,247.519456 2265.531479,243.878935 2276.090043,251.379429 2268.751127,261.489548 2265.762603,265.717261 2260.972877,272.299292 2249.252343,263.823015 2249.158335,263.869601 2246.286152,261.685273 2246.527370,261.234841 2250.268243,256.033527 2250.785834,255.187526 2252.345732,252.972067 2253.338824,251.525803 2250.690634,249.648096 2241.810912,243.167690 2237.279444,239.929517 2233.672947,244.760662 2231.849026,247.315788 2227.911985,252.855278 2221.367592,248.226132 2221.084738,248.020957 2225.021775,242.481462 2226.845695,239.926334 2230.529432,234.904308 2224.508696,230.319226 2224.996934,229.373723 2217.953910,224.299366 2214.452390,229.272865 2212.990836,231.330378 2206.325260,240.880465 2204.074824,244.101553"/>
    <poly id="125513285" type="building.residential" color="255,230,230" fill="1" layer="-1.00" shape="2262.209634,207.809934 2260.674154,209.902446 2261.385790,210.465364 2259.816386,212.558626 2258.953269,211.898906 2258.515035,212.342560 2254.979245,211.463681 2254.786688,212.580691 2253.245402,212.258651 2250.588563,224.435263 2247.601725,223.822454 2247.238503,225.510740 2238.332179,219.364754 2237.852349,220.076391 2236.335313,219.008273 2236.946762,218.416132 2233.079411,215.741925 2232.507935,216.299801 2231.059485,215.263551 2231.590742,214.728819 2230.611538,214.038286 2232.305534,206.523132 2226.828125,205.331082 2226.254532,206.100430 2227.713949,207.325604 2223.512546,213.805653 2227.650172,216.729816 2227.813656,216.448015 2228.158315,216.685208 2224.911813,221.219089 2212.457884,210.589219 2215.953860,205.671479 2215.782909,205.308046 2219.499605,200.240774 2219.796033,200.445649 2223.206766,195.663330 2250.059936,201.423985 2254.889321,202.474586 2256.336349,200.372898 2253.934853,198.601016 2261.165280,188.493274 2300.761618,216.762055 2276.412193,250.904957 2276.090043,251.379429 2265.531479,243.878935 2264.550566,243.110540 2264.833479,242.703699 2268.024985,238.137677 2275.000247,228.157992 2276.468302,229.160438 2282.857807,219.705568 2281.256905,218.528012 2280.088459,220.334225 2274.678195,216.648064 2271.670295,214.466717 2265.629804,210.215850 2262.209634,207.809934"/>
    <poly id="125513288" type="building.residential" color="255,230,230" fill="1" layer="-1.00" shape="2198.501395,259.758815 2203.528423,262.997130 2197.402805,273.325358 2200.248506,275.232055 2201.218765,273.675008 2211.810858,280.540352 2215.978677,283.296922 2218.873401,283.121689 2218.141100,279.165323 2230.483041,276.745026 2236.498575,275.566142 2237.222602,279.455928 2239.820227,278.430446 2246.580520,267.943596 2248.710468,264.491511 2249.158335,263.869601 2260.972877,272.299292 2260.525254,272.932322 2258.474910,275.993179 2245.259953,296.359216 2244.511528,297.510761 2247.410493,299.371797 2244.035307,304.531655 2239.177329,305.562556 2228.143722,307.898290 2223.116618,308.955199 2217.863780,305.632835 2220.369373,301.671694 2219.354785,300.915180 2218.729970,302.130764 2177.978973,275.668583 2191.271891,255.767993 2186.279904,252.272981 2192.843799,242.424667 2195.629709,238.245896 2204.074824,244.101553 2206.928552,246.063714 2207.177974,246.291881 2198.501395,259.758815"/>
    <poly id="125736711" type="building.viaduct" color="255,230,230" fill="1" layer="-1.00" shape="2145.958605,934.451050 2188.348948,951.173307 2204.314077,956.450980 2222.320328,961.338641 2240.417197,964.800034 2251.622129,966.599952 2262.265261,967.855926 2273.591266,968.685118 2283.474540,969.034332 2291.482137,968.968758 2298.856609,968.817029 2308.443653,968.660966 2321.140449,967.635076 2332.138698,966.223868 2341.291207,964.831173 2352.747655,962.653222 2363.806377,959.983334 2357.425461,943.032199 2337.930901,947.279260 2320.322277,949.637581 2307.060886,950.609173 2296.297067,950.958139 2285.587673,951.005481 2264.947780,950.103802 2244.811283,947.410674 2234.246612,945.407454 2212.447832,939.980417 2205.129893,937.471530 2195.951929,934.336111 2180.186598,928.275115 2155.629288,917.200852 2145.958605,934.451050"/>
    <poly id="126128623" type="building.yes" color="255,230,230" fill="1" layer="-1.00" shape="1890.456563,918.342260 1895.980509,928.401589 1898.179360,931.757903 1900.979901,934.700287 1903.815601,937.085513 1923.797462,951.164226 1916.244797,960.122412 1915.131874,958.600337 1911.208924,954.625696 1905.420385,948.856348 1889.407907,932.887045 1884.659389,935.763082 1879.538732,939.303902 1873.159716,929.864439 1890.456563,918.342260"/>
    <poly id="126128623#1" type="tourism.hotel" color="207,245,201" fill="1" layer="-2.00" shape="1890.456563,918.342260 1895.980509,928.401589 1898.179360,931.757903 1900.979901,934.700287 1903.815601,937.085513 1923.797462,951.164226 1916.244797,960.122412 1915.131874,958.600337 1911.208924,954.625696 1905.420385,948.856348 1889.407907,932.887045 1884.659389,935.763082 1879.538732,939.303902 1873.159716,929.864439 1890.456563,918.342260"/>
    <poly id="127177463" type="landuse.grass" color="194,194,130" fill="1" layer="-3.00" shape="1520.282598,534.990888 1514.052029,587.217939 1524.505054,589.032956 1549.681561,593.313660 1550.780207,586.857458 1563.411510,567.270193 1564.117433,566.353161 1563.336929,565.747364 1566.411272,561.750966 1567.122447,562.291539 1568.065942,561.068781 1572.022986,564.107686 1572.781705,563.122717 1589.563162,576.024991 1596.822771,566.705608 1606.876549,569.798224 1596.501604,562.028012 1520.282598,534.990888"/>
    <poly id="127177463#1" type="leisure.garden" color="207,245,201" fill="1" layer="-2.00" shape="1520.282598,534.990888 1514.052029,587.217939 1524.505054,589.032956 1549.681561,593.313660 1550.780207,586.857458 1563.411510,567.270193 1564.117433,566.353161 1563.336929,565.747364 1566.411272,561.750966 1567.122447,562.291539 1568.065942,561.068781 1572.022986,564.107686 1572.781705,563.122717 1589.563162,576.024991 1596.822771,566.705608 1606.876549,569.798224 1596.501604,562.028012 1520.282598,534.990888"/>
    <poly id="127178490" type="building.yes" color="255,230,230" fill="1" layer="-1.00" shape="1553.107651,639.639741 1529.945525,620.013727 1525.227359,616.324123 1520.571731,612.699899 1516.668968,609.659829 1512.981052,614.448842 1539.223112,634.907633 1535.758201,639.346714 1522.606301,629.101306 1521.570074,630.426285 1508.507803,620.245686 1506.601254,622.725045 1505.895350,623.642085 1542.833473,653.799982 1553.107651,639.639741"/>
    <poly id="127178491" type="building.yes" color="255,230,230" fill="1" layer="-1.00" shape="1545.453546,600.373566 1529.945525,620.013727 1553.107651,639.639741 1574.017033,611.978965 1563.245017,603.750289 1560.566826,603.275701 1545.453546,600.373566"/>
    <poly id="127182169" type="building.yes" color="255,230,230" fill="1" layer="-1.00" shape="1539.243987,619.361856 1547.551164,625.720200 1558.349558,611.626212 1546.905743,608.597986 1539.243987,619.361856"/>
    <poly id="128441442" type="building.yes" color="255,230,230" fill="1" layer="-1.00" shape="1207.207617,441.602914 1209.571504,413.063379 1192.525613,411.507341 1174.996909,410.218070 1172.633220,438.757625 1207.207617,441.602914"/>
    <poly id="128441444" type="building.yes" color="255,230,230" fill="1" layer="-1.00" shape="1221.221159,414.027632 1219.417075,435.711164 1218.850173,442.556190 1207.207617,441.602914 1209.571504,413.063379 1215.290920,413.536725 1221.221159,414.027632"/>
    <poly id="128441446" type="building.yes" color="255,230,230" fill="1" layer="-1.00" shape="1218.850173,442.556190 1217.876514,454.295331 1216.497345,470.984198 1182.052321,468.147092 1183.528193,450.321033 1183.660252,449.850725 1197.135833,451.119145 1199.370968,453.027762 1198.721601,460.130567 1205.651872,460.721554 1207.207617,441.602914 1218.850173,442.556190"/>
    <poly id="128441447" type="building.yes" color="255,230,230" fill="1" layer="-1.00" shape="1174.996909,410.218070 1169.365934,409.753925 1157.539601,408.782609 1152.439078,408.362286 1150.075271,436.890731 1172.633220,438.757625 1174.996909,410.218070"/>
    <poly id="128441453" type="building.yes" color="255,230,230" fill="1" layer="-1.00" shape="1157.355499,451.338915 1165.274046,452.108092 1166.218606,442.417076 1158.293259,441.648048 1157.355499,451.338915"/>
    <poly id="128441454" type="building.yes" color="255,230,230" fill="1" layer="-1.00" shape="1182.052321,468.147092 1170.273624,467.174687 1171.749454,449.348624 1183.528193,450.321033 1182.052321,468.147092"/>
    <poly id="128441456" type="building.yes" color="255,230,230" fill="1" layer="-1.00" shape="1172.633220,438.757625 1150.075271,436.890731 1147.716052,465.318928 1170.273624,467.174687 1171.749454,449.348624 1172.633220,438.757625"/>
    <poly id="128565935" type="building.residential" color="255,230,230" fill="1" layer="-1.00" shape="1833.360520,877.935240 1834.290320,877.625302 1833.447120,875.106904 1832.442694,875.418498 1831.691387,873.064977 1839.339857,870.569685 1840.942138,873.649886 1849.839015,890.722665 1854.199146,903.389366 1830.314971,911.385649 1829.747823,909.684574 1826.035699,898.694920 1825.967982,898.395976 1839.720159,893.840234 1838.237043,889.399820 1837.300708,889.721031 1833.360520,877.935240"/>
    <poly id="128565938" type="building.residential" color="255,230,230" fill="1" layer="-1.00" shape="1776.528245,898.402243 1788.701774,893.669961 1789.666122,896.141153 1792.639214,903.797764 1795.525459,911.211495 1799.985942,909.732714 1799.251893,907.545729 1805.659172,905.400618 1809.366528,916.479385 1809.947990,918.213524 1798.568363,922.015677 1787.182215,925.829130 1776.528245,898.402243"/>