<?xml version="1.0" encoding="UTF-8"?>

<!-- generated on 01/25/20 23:32:37 by Eclipse SUMO duarouter Version 1.4.0
<configuration xmlns:xsi="http://www.w3.org/2001/XMLSchema-instance" xsi:noNamespaceSchemaLocation="http://sumo.dlr.de/xsd/duarouterConfiguration.xsd">

    <input>
        <net-file value="c:\SUMO_Downloads\Sumo\tools\2020-01-25-23-32-09\osm.net.xml"/>
        <route-files value="c:\SUMO_Downloads\Sumo\tools\2020-01-25-23-32-09\osm.ship.trips.xml"/>
    </input>

    <output>
        <output-file value="c:\SUMO_Downloads\Sumo\tools\2020-01-25-23-32-09\osm.ship.trips.xml.tmp"/>
        <write-trips value="true"/>
    </output>

    <time>
        <begin value="0"/>
        <end value="3600.0"/>
    </time>

    <report>
        <no-warnings value="true"/>
        <ignore-errors value="true"/>
        <no-step-log value="true"/>
    </report>

</configuration>
-->

<routes xmlns:xsi="http://www.w3.org/2001/XMLSchema-instance" xsi:noNamespaceSchemaLocation="http://sumo.dlr.de/xsd/routes_file.xsd">
    <vType id="ship_ship" vClass="ship"/>
    <trip id="ship0" type="ship_ship" depart="0.00" departSpeed="max" from="159534658#0" to="-145662520"/>
    <trip id="ship1" type="ship_ship" depart="11.16" departSpeed="max" from="-159534658#1" to="-145662520"/>
    <trip id="ship2" type="ship_ship" depart="22.32" departSpeed="max" from="309903416" to="159534658#1"/>
    <trip id="ship3" type="ship_ship" depart="33.48" departSpeed="max" from="309903416" to="-145662520"/>
    <trip id="ship4" type="ship_ship" depart="44.64" departSpeed="max" from="159534658#0" to="-145662520"/>
    <trip id="ship5" type="ship_ship" depart="55.80" departSpeed="max" from="-159534658#1" to="-159534658#0"/>
    <trip id="ship6" type="ship_ship" depart="66.96" departSpeed="max" from="-159534658#1" to="-145662520"/>
    <trip id="ship7" type="ship_ship" depart="78.12" departSpeed="max" from="159534658#0" to="-159534658#0"/>
    <trip id="ship8" type="ship_ship" depart="89.28" departSpeed="max" from="-159534658#1" to="-159534658#0"/>
    <trip id="ship9" type="ship_ship" depart="100.44" departSpeed="max" from="309903416" to="-145662520"/>
    <trip id="ship10" type="ship_ship" depart="111.60" departSpeed="max" from="309903416" to="159534658#1"/>
    <trip id="ship11" type="ship_ship" depart="122.76" departSpeed="max" from="159534658#0" to="-145662520"/>
    <trip id="ship12" type="ship_ship" depart="133.92" departSpeed="max" from="309903416" to="-159534658#0"/>
    <trip id="ship13" type="ship_ship" depart="145.08" departSpeed="max" from="-159534658#1" to="-145662520"/>
    <trip id="ship14" type="ship_ship" depart="156.24" departSpeed="max" from="309903416" to="-159534658#0"/>
    <trip id="ship15" type="ship_ship" depart="167.40" departSpeed="max" from="309903416" to="159534658#1"/>
    <trip id="ship16" type="ship_ship" depart="178.56" departSpeed="max" from="159534658#0" to="159534658#1"/>
    <trip id="ship17" type="ship_ship" depart="189.72" departSpeed="max" from="159534658#0" to="-159534658#0"/>
    <trip id="ship18" type="ship_ship" depart="200.88" departSpeed="max" from="309903416" to="-159534658#0"/>
    <trip id="ship19" type="ship_ship" depart="212.04" departSpeed="max" from="309903416" to="-159534658#0"/>
    <trip id="ship20" type="ship_ship" depart="223.20" departSpeed="max" from="309903416" to="-145662520"/>
    <trip id="ship21" type="ship_ship" depart="234.36" departSpeed="max" from="-159534658#1" to="-145662520"/>
    <trip id="ship22" type="ship_ship" depart="245.52" departSpeed="max" from="-159534658#1" to="-145662520"/>
    <trip id="ship23" type="ship_ship" depart="256.68" departSpeed="max" from="-159534658#1" to="-145662520"/>
    <trip id="ship24" type="ship_ship" depart="267.84" departSpeed="max" from="159534658#0" to="-159534658#0"/>
    <trip id="ship25" type="ship_ship" depart="279.00" departSpeed="max" from="159534658#0" to="-145662520"/>
    <trip id="ship26" type="ship_ship" depart="290.16" departSpeed="max" from="-159534658#1" to="159534658#1"/>
    <trip id="ship27" type="ship_ship" depart="301.32" departSpeed="max" from="159534658#0" to="-159534658#0"/>
    <trip id="ship28" type="ship_ship" depart="312.48" departSpeed="max" from="-159534658#1" to="159534658#1"/>
    <trip id="ship29" type="ship_ship" depart="323.64" departSpeed="max" from="-159534658#1" to="-159534658#0"/>
    <trip id="ship30" type="ship_ship" depart="334.80" departSpeed="max" from="309903416" to="-159534658#0"/>
    <trip id="ship31" type="ship_ship" depart="345.96" departSpeed="max" from="159534658#0" to="159534658#1"/>
    <trip id="ship32" type="ship_ship" depart="357.12" departSpeed="max" from="309903416" to="159534658#1"/>
    <trip id="ship33" type="ship_ship" depart="368.28" departSpeed="max" from="-159534658#1" to="-145662520"/>
    <trip id="ship34" type="ship_ship" depart="379.44" departSpeed="max" from="-159534658#1" to="-145662520"/>
    <trip id="ship35" type="ship_ship" depart="390.60" departSpeed="max" from="-159534658#1" to="159534658#1"/>
    <trip id="ship36" type="ship_ship" depart="401.76" departSpeed="max" from="309903416" to="-145662520"/>
    <trip id="ship37" type="ship_ship" depart="412.92" departSpeed="max" from="159534658#0" to="-159534658#0"/>
    <trip id="ship38" type="ship_ship" depart="424.08" departSpeed="max" from="309903416" to="-159534658#0"/>
    <trip id="ship39" type="ship_ship" depart="435.24" departSpeed="max" from="-159534658#1" to="-145662520"/>
    <trip id="ship40" type="ship_ship" depart="446.40" departSpeed="max" from="159534658#0" to="-145662520"/>
    <trip id="ship41" type="ship_ship" depart="457.56" departSpeed="max" from="159534658#0" to="159534658#1"/>
    <trip id="ship42" type="ship_ship" depart="468.72" departSpeed="max" from="159534658#0" to="-145662520"/>
    <trip id="ship43" type="ship_ship" depart="479.88" departSpeed="max" from="309903416" to="-159534658#0"/>
    <trip id="ship44" type="ship_ship" depart="491.04" departSpeed="max" from="-159534658#1" to="-145662520"/>
    <trip id="ship45" type="ship_ship" depart="502.20" departSpeed="max" from="-159534658#1" to="-159534658#0"/>
    <trip id="ship46" type="ship_ship" depart="513.36" departSpeed="max" from="309903416" to="-159534658#0"/>
    <trip id="ship47" type="ship_ship" depart="524.52" departSpeed="max" from="-159534658#1" to="-159534658#0"/>
    <trip id="ship48" type="ship_ship" depart="535.68" departSpeed="max" from="309903416" to="-159534658#0"/>
    <trip id="ship49" type="ship_ship" depart="546.84" departSpeed="max" from="309903416" to="159534658#1"/>
    <trip id="ship50" type="ship_ship" depart="558.00" departSpeed="max" from="-159534658#1" to="159534658#1"/>
    <trip id="ship51" type="ship_ship" depart="569.16" departSpeed="max" from="309903416" to="-159534658#0"/>
    <trip id="ship52" type="ship_ship" depart="580.32" departSpeed="max" from="-159534658#1" to="-159534658#0"/>
    <trip id="ship53" type="ship_ship" depart="591.48" departSpeed="max" from="-159534658#1" to="-159534658#0"/>
    <trip id="ship54" type="ship_ship" depart="602.64" departSpeed="max" from="159534658#0" to="159534658#1"/>
    <trip id="ship55" type="ship_ship" depart="613.80" departSpeed="max" from="309903416" to="-145662520"/>
    <trip id="ship56" type="ship_ship" depart="624.96" departSpeed="max" from="159534658#0" to="-145662520"/>
    <trip id="ship57" type="ship_ship" depart="636.12" departSpeed="max" from="309903416" to="159534658#1"/>
    <trip id="ship58" type="ship_ship" depart="647.28" departSpeed="max" from="-159534658#1" to="-159534658#0"/>
    <trip id="ship59" type="ship_ship" depart="658.44" departSpeed="max" from="159534658#0" to="-145662520"/>
    <trip id="ship60" type="ship_ship" depart="669.60" departSpeed="max" from="309903416" to="-159534658#0"/>
    <trip id="ship61" type="ship_ship" depart="680.76" departSpeed="max" from="309903416" to="-159534658#0"/>
    <trip id="ship62" type="ship_ship" depart="691.92" departSpeed="max" from="-159534658#1" to="-145662520"/>
    <trip id="ship63" type="ship_ship" depart="703.08" departSpeed="max" from="-159534658#1" to="159534658#1"/>
    <trip id="ship64" type="ship_ship" depart="714.24" departSpeed="max" from="309903416" to="159534658#1"/>
    <trip id="ship65" type="ship_ship" depart="725.40" departSpeed="max" from="-159534658#1" to="-145662520"/>
    <trip id="ship66" type="ship_ship" depart="736.56" departSpeed="max" from="309903416" to="159534658#1"/>
    <trip id="ship67" type="ship_ship" depart="747.72" departSpeed="max" from="-159534658#1" to="-159534658#0"/>
    <trip id="ship68" type="ship_ship" depart="758.87" departSpeed="max" from="-159534658#1" to="159534658#1"/>
    <trip id="ship69" type="ship_ship" depart="770.03" departSpeed="max" from="309903416" to="-145662520"/>
    <trip id="ship70" type="ship_ship" depart="781.19" departSpeed="max" from="159534658#0" to="-159534658#0"/>
    <trip id="ship71" type="ship_ship" depart="792.35" departSpeed="max" from="-159534658#1" to="159534658#1"/>
    <trip id="ship72" type="ship_ship" depart="803.51" departSpeed="max" from="159534658#0" to="-145662520"/>
    <trip id="ship73" type="ship_ship" depart="814.67" departSpeed="max" from="159534658#0" to="159534658#1"/>
    <trip id="ship74" type="ship_ship" depart="825.83" departSpeed="max" from="-159534658#1" to="-145662520"/>
    <trip id="ship75" type="ship_ship" depart="836.99" departSpeed="max" from="309903416" to="-159534658#0"/>
    <trip id="ship76" type="ship_ship" depart="848.15" departSpeed="max" from="159534658#0" to="-159534658#0"/>
    <trip id="ship77" type="ship_ship" depart="859.31" departSpeed="max" from="-159534658#1" to="-145662520"/>
    <trip id="ship78" type="ship_ship" depart="870.47" departSpeed="max" from="159534658#0" to="-159534658#0"/>
    <trip id="ship79" type="ship_ship" depart="881.63" departSpeed="max" from="-159534658#1" to="-145662520"/>
    <trip id="ship80" type="ship_ship" depart="892.79" departSpeed="max" from="-159534658#1" to="-159534658#0"/>
    <trip id="ship81" type="ship_ship" depart="903.95" departSpeed="max" from="-159534658#1" to="159534658#1"/>
    <trip id="ship82" type="ship_ship" depart="915.11" departSpeed="max" from="309903416" to="-145662520"/>
    <trip id="ship83" type="ship_ship" depart="926.27" departSpeed="max" from="-159534658#1" to="159534658#1"/>
    <trip id="ship84" type="ship_ship" depart="937.43" departSpeed="max" from="-159534658#1" to="-145662520"/>
    <trip id="ship85" type="ship_ship" depart="948.59" departSpeed="max" from="309903416" to="-159534658#0"/>
    <trip id="ship86" type="ship_ship" depart="959.75" departSpeed="max" from="159534658#0" to="159534658#1"/>
    <trip id="ship87" type="ship_ship" depart="970.91" departSpeed="max" from="309903416" to="-145662520"/>
    <trip id="ship88" type="ship_ship" depart="982.07" departSpeed="max" from="-159534658#1" to="-159534658#0"/>
    <trip id="ship89" type="ship_ship" depart="993.23" departSpeed="max" from="159534658#0" to="-159534658#0"/>
    <trip id="ship90" type="ship_ship" depart="1004.39" departSpeed="max" from="309903416" to="159534658#1"/>
    <trip id="ship91" type="ship_ship" depart="1015.55" departSpeed="max" from="309903416" to="-145662520"/>
    <trip id="ship92" type="ship_ship" depart="1026.71" departSpeed="max" from="159534658#0" to="-159534658#0"/>
    <trip id="ship93" type="ship_ship" depart="1037.87" departSpeed="max" from="309903416" to="-145662520"/>
    <trip id="ship94" type="ship_ship" depart="1049.03" departSpeed="max" from="-159534658#1" to="-159534658#0"/>
    <trip id="ship95" type="ship_ship" depart="1060.19" departSpeed="max" from="159534658#0" to="-145662520"/>
    <trip id="ship96" type="ship_ship" depart="1071.35" departSpeed="max" from="-159534658#1" to="159534658#1"/>
    <trip id="ship97" type="ship_ship" depart="1082.51" departSpeed="max" from="159534658#0" to="159534658#1"/>
    <trip id="ship98" type="ship_ship" depart="1093.67" departSpeed="max" from="159534658#0" to="-145662520"/>
    <trip id="ship99" type="ship_ship" depart="1104.83" departSpeed="max" from="309903416" to="159534658#1"/>
    <trip id="ship100" type="ship_ship" depart="1115.99" departSpeed="max" from="309903416" to="159534658#1"/>
    <trip id="ship101" type="ship_ship" depart="1127.15" departSpeed="max" from="309903416" to="-145662520"/>
    <trip id="ship102" type="ship_ship" depart="1138.31" departSpeed="max" from="159534658#0" to="-145662520"/>
    <trip id="ship103" type="ship_ship" depart="1149.47" departSpeed="max" from="159534658#0" to="-145662520"/>
    <trip id="ship104" type="ship_ship" depart="1160.63" departSpeed="max" from="159534658#0" to="159534658#1"/>
    <trip id="ship105" type="ship_ship" depart="1171.79" departSpeed="max" from="-159534658#1" to="159534658#1"/>
    <trip id="ship106" type="ship_ship" depart="1182.95" departSpeed="max" from="159534658#0" to="-159534658#0"/>
    <trip id="ship107" type="ship_ship" depart="1194.11" departSpeed="max" from="309903416" to="159534658#1"/>
    <trip id="ship108" type="ship_ship" depart="1205.27" departSpeed="max" from="159534658#0" to="159534658#1"/>
    <trip id="ship109" type="ship_ship" depart="1216.43" departSpeed="max" from="-159534658#1" to="-145662520"/>
    <trip id="ship110" type="ship_ship" depart="1227.59" departSpeed="max" from="309903416" to="-159534658#0"/>
    <trip id="ship111" type="ship_ship" depart="1238.75" departSpeed="max" from="159534658#0" to="159534658#1"/>
    <trip id="ship112" type="ship_ship" depart="1249.91" departSpeed="max" from="-159534658#1" to="-159534658#0"/>
    <trip id="ship113" type="ship_ship" depart="1261.07" departSpeed="max" from="159534658#0" to="159534658#1"/>
    <trip id="ship114" type="ship_ship" depart="1272.23" departSpeed="max" from="-159534658#1" to="159534658#1"/>
    <trip id="ship115" type="ship_ship" depart="1283.39" departSpeed="max" from="-159534658#1" to="-145662520"/>
    <trip id="ship116" type="ship_ship" depart="1294.55" departSpeed="max" from="159534658#0" to="159534658#1"/>
    <trip id="ship117" type="ship_ship" depart="1305.71" departSpeed="max" from="-159534658#1" to="-145662520"/>
    <trip id="ship118" type="ship_ship" depart="1316.87" departSpeed="max" from="309903416" to="-145662520"/>
    <trip id="ship119" type="ship_ship" depart="1328.03" departSpeed="max" from="159534658#0" to="-159534658#0"/>
    <trip id="ship120" type="ship_ship" depart="1339.19" departSpeed="max" from="159534658#0" to="-159534658#0"/>
    <trip id="ship121" type="ship_ship" depart="1350.35" departSpeed="max" from="159534658#0" to="159534658#1"/>
    <trip id="ship122" type="ship_ship" depart="1361.51" departSpeed="max" from="-159534658#1" to="159534658#1"/>
    <trip id="ship123" type="ship_ship" depart="1372.67" departSpeed="max" from="-159534658#1" to="-159534658#0"/>
    <trip id="ship124" type="ship_ship" depart="1383.83" departSpeed="max" from="309903416" to="-145662520"/>
    <trip id="ship125" type="ship_ship" depart="1394.99" departSpeed="max" from="-159534658#1" to="159534658#1"/>
    <trip id="ship126" type="ship_ship" depart="1406.15" departSpeed="max" from="-159534658#1" to="-159534658#0"/>
    <trip id="ship127" type="ship_ship" depart="1417.31" departSpeed="max" from="309903416" to="159534658#1"/>
    <trip id="ship128" type="ship_ship" depart="1428.47" departSpeed="max" from="-159534658#1" to="-145662520"/>
    <trip id="ship129" type="ship_ship" depart="1439.63" departSpeed="max" from="-159534658#1" to="159534658#1"/>
    <trip id="ship130" type="ship_ship" depart="1450.79" departSpeed="max" from="309903416" to="159534658#1"/>
    <trip id="ship131" type="ship_ship" depart="1461.95" departSpeed="max" from="159534658#0" to="-145662520"/>
    <trip id="ship132" type="ship_ship" depart="1473.11" departSpeed="max" from="309903416" to="159534658#1"/>
    <trip id="ship133" type="ship_ship" depart="1484.27" departSpeed="max" from="159534658#0" to="159534658#1"/>
    <trip id="ship134" type="ship_ship" depart="1495.43" departSpeed="max" from="159534658#0" to="-145662520"/>
    <trip id="ship135" type="ship_ship" depart="1506.59" departSpeed="max" from="309903416" to="-145662520"/>
    <trip id="ship136" type="ship_ship" depart="1517.75" departSpeed="max" from="159534658#0" to="159534658#1"/>
    <trip id="ship137" type="ship_ship" depart="1528.91" departSpeed="max" from="-159534658#1" to="-145662520"/>
    <trip id="ship138" type="ship_ship" depart="1540.07" departSpeed="max" from="-159534658#1" to="-159534658#0"/>
    <trip id="ship139" type="ship_ship" depart="1551.23" departSpeed="max" from="-159534658#1" to="-159534658#0"/>
    <trip id="ship140" type="ship_ship" depart="1562.39" departSpeed="max" from="309903416" to="-145662520"/>
    <trip id="ship141" type="ship_ship" depart="1573.55" departSpeed="max" from="159534658#0" to="-145662520"/>
    <trip id="ship142" type="ship_ship" depart="1584.71" departSpeed="max" from="159534658#0" to="159534658#1"/>
    <trip id="ship143" type="ship_ship" depart="1595.87" departSpeed="max" from="309903416" to="-145662520"/>
    <trip id="ship144" type="ship_ship" depart="1607.03" departSpeed="max" from="159534658#0" to="-145662520"/>
    <trip id="ship145" type="ship_ship" depart="1618.19" departSpeed="max" from="-159534658#1" to="159534658#1"/>
    <trip id="ship146" type="ship_ship" depart="1629.35" departSpeed="max" from="159534658#0" to="-145662520"/>
    <trip id="ship147" type="ship_ship" depart="1640.51" departSpeed="max" from="309903416" to="-159534658#0"/>
    <trip id="ship148" type="ship_ship" depart="1651.67" departSpeed="max" from="159534658#0" to="-145662520"/>
    <trip id="ship149" type="ship_ship" depart="1662.83" departSpeed="max" from="-159534658#1" to="159534658#1"/>
    <trip id="ship150" type="ship_ship" depart="1673.99" departSpeed="max" from="309903416" to="-159534658#0"/>
    <trip id="ship151" type="ship_ship" depart="1685.15" departSpeed="max" from="309903416" to="-159534658#0"/>
    <trip id="ship152" type="ship_ship" depart="1696.31" departSpeed="max" from="-159534658#1" to="-145662520"/>
    <trip id="ship153" type="ship_ship" depart="1707.47" departSpeed="max" from="-159534658#1" to="159534658#1"/>
    <trip id="ship154" type="ship_ship" depart="1718.63" departSpeed="max" from="309903416" to="159534658#1"/>
    <trip id="ship155" type="ship_ship" depart="1729.79" departSpeed="max" from="309903416" to="-145662520"/>
    <trip id="ship156" type="ship_ship" depart="1740.95" departSpeed="max" from="-159534658#1" to="-145662520"/>
    <trip id="ship157" type="ship_ship" depart="1752.11" departSpeed="max" from="309903416" to="159534658#1"/>
    <trip id="ship158" type="ship_ship" depart="1763.27" departSpeed="max" from="159534658#0" to="-159534658#0"/>
    <trip id="ship159" type="ship_ship" depart="1774.43" departSpeed="max" from="-159534658#1" to="159534658#1"/>
    <trip id="ship160" type="ship_ship" depart="1785.59" departSpeed="max" from="309903416" to="159534658#1"/>
    <trip id="ship161" type="ship_ship" depart="1796.75" departSpeed="max" from="309903416" to="159534658#1"/>
    <trip id="ship162" type="ship_ship" depart="1807.91" departSpeed="max" from="-159534658#1" to="159534658#1"/>
    <trip id="ship163" type="ship_ship" depart="1819.07" departSpeed="max" from="-159534658#1" to="159534658#1"/>
    <trip id="ship164" type="ship_ship" depart="1830.23" departSpeed="max" from="309903416" to="159534658#1"/>
    <trip id="ship165" type="ship_ship" depart="1841.39" departSpeed="max" from="309903416" to="-145662520"/>
    <trip id="ship166" type="ship_ship" depart="1852.55" departSpeed="max" from="309903416" to="-145662520"/>
    <trip id="ship167" type="ship_ship" depart="1863.71" departSpeed="max" from="309903416" to="159534658#1"/>
    <trip id="ship168" type="ship_ship" depart="1874.87" departSpeed="max" from="-159534658#1" to="159534658#1"/>
    <trip id="ship169" type="ship_ship" depart="1886.03" departSpeed="max" from="159534658#0" to="-145662520"/>
    <trip id="ship170" type="ship_ship" depart="1897.19" departSpeed="max" from="309903416" to="-145662520"/>
    <trip id="ship171" type="ship_ship" depart="1908.35" departSpeed="max" from="-159534658#1" to="-145662520"/>
    <trip id="ship172" type="ship_ship" depart="1919.51" departSpeed="max" from="-159534658#1" to="159534658#1"/>
    <trip id="ship173" type="ship_ship" depart="1930.67" departSpeed="max" from="309903416" to="-145662520"/>
    <trip id="ship174" type="ship_ship" depart="1941.83" departSpeed="max" from="159534658#0" to="-159534658#0"/>
    <trip id="ship175" type="ship_ship" depart="1952.99" departSpeed="max" from="309903416" to="-159534658#0"/>
    <trip id="ship176" type="ship_ship" depart="1964.15" departSpeed="max" from="309903416" to="-145662520"/>
    <trip id="ship177" type="ship_ship" depart="1975.31" departSpeed="max" from="309903416" to="-145662520"/>
    <trip id="ship178" type="ship_ship" depart="1986.47" departSpeed="max" from="309903416" to="-145662520"/>
    <trip id="ship179" type="ship_ship" depart="1997.63" departSpeed="max" from="-159534658#1" to="-159534658#0"/>
    <trip id="ship180" type="ship_ship" depart="2008.79" departSpeed="max" from="309903416" to="-145662520"/>
    <trip id="ship181" type="ship_ship" depart="2019.95" departSpeed="max" from="159534658#0" to="-159534658#0"/>
    <trip id="ship182" type="ship_ship" depart="2031.11" departSpeed="max" from="159534658#0" to="-159534658#0"/>
    <trip id="ship183" type="ship_ship" depart="2042.27" departSpeed="max" from="-159534658#1" to="159534658#1"/>
    <trip id="ship184" type="ship_ship" depart="2053.43" departSpeed="max" from="-159534658#1" to="159534658#1"/>
    <trip id="ship185" type="ship_ship" depart="2064.59" departSpeed="max" from="159534658#0" to="159534658#1"/>
    <trip id="ship186" type="ship_ship" depart="2075.75" departSpeed="max" from="309903416" to="159534658#1"/>
    <trip id="ship187" type="ship_ship" depart="2086.91" departSpeed="max" from="159534658#0" to="-145662520"/>
    <trip id="ship188" type="ship_ship" depart="2098.07" departSpeed="max" from="159534658#0" to="-145662520"/>
    <trip id="ship189" type="ship_ship" depart="2109.23" departSpeed="max" from="-159534658#1" to="159534658#1"/>
    <trip id="ship190" type="ship_ship" depart="2120.39" departSpeed="max" from="309903416" to="-145662520"/>
    <trip id="ship191" type="ship_ship" depart="2131.55" departSpeed="max" from="-159534658#1" to="-159534658#0"/>
    <trip id="ship192" type="ship_ship" depart="2142.71" departSpeed="max" from="159534658#0" to="-145662520"/>
    <trip id="ship193" type="ship_ship" depart="2153.87" departSpeed="max" from="-159534658#1" to="-159534658#0"/>
    <trip id="ship194" type="ship_ship" depart="2165.03" departSpeed="max" from="309903416" to="159534658#1"/>
    <trip id="ship195" type="ship_ship" depart="2176.19" departSpeed="max" from="309903416" to="-159534658#0"/>
    <trip id="ship196" type="ship_ship" depart="2187.35" departSpeed="max" from="-159534658#1" to="-159534658#0"/>
    <trip id="ship197" type="ship_ship" depart="2198.51" departSpeed="max" from="-159534658#1" to="-145662520"/>
    <trip id="ship198" type="ship_ship" depart="2209.67" departSpeed="max" from="159534658#0" to="-159534658#0"/>
    <trip id="ship199" type="ship_ship" depart="2220.83" departSpeed="max" from="159534658#0" to="-159534658#0"/>
    <trip id="ship200" type="ship_ship" depart="2231.99" departSpeed="max" from="159534658#0" to="-145662520"/>
    <trip id="ship201" type="ship_ship" depart="2243.15" departSpeed="max" from="159534658#0" to="159534658#1"/>
    <trip id="ship202" type="ship_ship" depart="2254.30" departSpeed="max" from="309903416" to="-145662520"/>
    <trip id="ship203" type="ship_ship" depart="2265.46" departSpeed="max" from="-159534658#1" to="-159534658#0"/>
    <trip id="ship204" type="ship_ship" depart="2276.62" departSpeed="max" from="159534658#0" to="-159534658#0"/>
    <trip id="ship205" type="ship_ship" depart="2287.78" departSpeed="max" from="309903416" to="159534658#1"/>
    <trip id="ship206" type="ship_ship" depart="2298.94" departSpeed="max" from="309903416" to="-145662520"/>
    <trip id="ship207" type="ship_ship" depart="2310.10" departSpeed="max" from="-159534658#1" to="-145662520"/>
    <trip id="ship208" type="ship_ship" depart="2321.26" departSpeed="max" from="-159534658#1" to="-159534658#0"/>
    <trip id="ship209" type="ship_ship" depart="2332.42" departSpeed="max" from="309903416" to="-145662520"/>
    <trip id="ship210" type="ship_ship" depart="2343.58" departSpeed="max" from="159534658#0" to="-159534658#0"/>
    <trip id="ship211" type="ship_ship" depart="2354.74" departSpeed="max" from="-159534658#1" to="159534658#1"/>
    <trip id="ship212" type="ship_ship" depart="2365.90" departSpeed="max" from="159534658#0" to="-145662520"/>
    <trip id="ship213" type="ship_ship" depart="2377.06" departSpeed="max" from="159534658#0" to="-145662520"/>
    <trip id="ship214" type="ship_ship" depart="2388.22" departSpeed="max" from="309903416" to="159534658#1"/>
    <trip id="ship215" type="ship_ship" depart="2399.38" departSpeed="max" from="-159534658#1" to="-159534658#0"/>
    <trip id="ship216" type="ship_ship" depart="2410.54" departSpeed="max" from="-159534658#1" to="159534658#1"/>
    <trip id="ship217" type="ship_ship" depart="2421.70" departSpeed="max" from="159534658#0" to="-145662520"/>
    <trip id="ship218" type="ship_ship" depart="2432.86" departSpeed="max" from="-159534658#1" to="159534658#1"/>
    <trip id="ship219" type="ship_ship" depart="2444.02" departSpeed="max" from="159534658#0" to="159534658#1"/>
    <trip id="ship220" type="ship_ship" depart="2455.18" departSpeed="max" from="309903416" to="159534658#1"/>
    <trip id="ship221" type="ship_ship" depart="2466.34" departSpeed="max" from="159534658#0" to="159534658#1"/>
    <trip id="ship222" type="ship_ship" depart="2477.50" departSpeed="max" from="309903416" to="-159534658#0"/>
    <trip id="ship223" type="ship_ship" depart="2488.66" departSpeed="max" from="309903416" to="-159534658#0"/>
    <trip id="ship224" type="ship_ship" depart="2499.82" departSpeed="max" from="309903416" to="-159534658#0"/>
    <trip id="ship225" type="ship_ship" depart="2510.98" departSpeed="max" from="309903416" to="159534658#1"/>
    <trip id="ship226" type="ship_ship" depart="2522.14" departSpeed="max" from="159534658#0" to="-145662520"/>
    <trip id="ship227" type="ship_ship" depart="2533.30" departSpeed="max" from="-159534658#1" to="-159534658#0"/>
    <trip id="ship228" type="ship_ship" depart="2544.46" departSpeed="max" from="309903416" to="-159534658#0"/>
    <trip id="ship229" type="ship_ship" depart="2555.62" departSpeed="max" from="159534658#0" to="-145662520"/>
    <trip id="ship230" type="ship_ship" depart="2566.78" departSpeed="max" from="-159534658#1" to="-145662520"/>
    <trip id="ship231" type="ship_ship" depart="2577.94" departSpeed="max" from="-159534658#1" to="-145662520"/>
    <trip id="ship232" type="ship_ship" depart="2589.10" departSpeed="max" from="159534658#0" to="-145662520"/>
    <trip id="ship233" type="ship_ship" depart="2600.26" departSpeed="max" from="-159534658#1" to="159534658#1"/>
    <trip id="ship234" type="ship_ship" depart="2611.42" departSpeed="max" from="309903416" to="-145662520"/>
    <trip id="ship235" type="ship_ship" depart="2622.58" departSpeed="max" from="159534658#0" to="-159534658#0"/>
    <trip id="ship236" type="ship_ship" depart="2633.74" departSpeed="max" from="159534658#0" to="-145662520"/>
    <trip id="ship237" type="ship_ship" depart="2644.90" departSpeed="max" from="159534658#0" to="159534658#1"/>
    <trip id="ship238" type="ship_ship" depart="2656.06" departSpeed="max" from="159534658#0" to="159534658#1"/>
    <trip id="ship239" type="ship_ship" depart="2667.22" departSpeed="max" from="309903416" to="159534658#1"/>
    <trip id="ship240" type="ship_ship" depart="2678.38" departSpeed="max" from="159534658#0" to="-145662520"/>
    <trip id="ship241" type="ship_ship" depart="2689.54" departSpeed="max" from="159534658#0" to="159534658#1"/>
    <trip id="ship242" type="ship_ship" depart="2700.70" departSpeed="max" from="309903416" to="159534658#1"/>
    <trip id="ship243" type="ship_ship" depart="2711.86" departSpeed="max" from="159534658#0" to="159534658#1"/>
    <trip id="ship244" type="ship_ship" depart="2723.02" departSpeed="max" from="159534658#0" to="-159534658#0"/>
    <trip id="ship245" type="ship_ship" depart="2734.18" departSpeed="max" from="-159534658#1" to="-145662520"/>
    <trip id="ship246" type="ship_ship" depart="2745.34" departSpeed="max" from="159534658#0" to="-145662520"/>
    <trip id="ship247" type="ship_ship" depart="2756.50" departSpeed="max" from="159534658#0" to="159534658#1"/>
    <trip id="ship248" type="ship_ship" depart="2767.66" departSpeed="max" from="159534658#0" to="-145662520"/>
    <trip id="ship249" type="ship_ship" depart="2778.82" departSpeed="max" from="159534658#0" to="-145662520"/>
    <trip id="ship250" type="ship_ship" depart="2789.98" departSpeed="max" from="159534658#0" to="-145662520"/>
    <trip id="ship251" type="ship_ship" depart="2801.14" departSpeed="max" from="159534658#0" to="-159534658#0"/>
    <trip id="ship252" type="ship_ship" depart="2812.30" departSpeed="max" from="-159534658#1" to="-159534658#0"/>
    <trip id="ship253" type="ship_ship" depart="2823.46" departSpeed="max" from="-159534658#1" to="-159534658#0"/>
    <trip id="ship254" type="ship_ship" depart="2834.62" departSpeed="max" from="-159534658#1" to="-159534658#0"/>
    <trip id="ship255" type="ship_ship" depart="2845.78" departSpeed="max" from="-159534658#1" to="-145662520"/>
    <trip id="ship256" type="ship_ship" depart="2856.94" departSpeed="max" from="309903416" to="-159534658#0"/>
    <trip id="ship257" type="ship_ship" depart="2868.10" departSpeed="max" from="309903416" to="159534658#1"/>