<?xml version="1.0" encoding="UTF-8"?>

<!-- generated on 01/26/20 21:17:45 by Eclipse SUMO GUI Version 1.4.0
-->

<configuration xmlns:xsi="http://www.w3.org/2001/XMLSchema-instance" xsi:noNamespaceSchemaLocation="http://sumo.dlr.de/xsd/sumoConfiguration.xsd">

    <input>
        <net-file value="net.net.xml"/>
		<route-files value="routes.rou.xml"/>
    </input>

	<time>
	<begin value="0"/>
	<end value="2000"/>
	</time>

</configuration>
