<routes>
<vType accel="1.0" decel="5.0" id="Car" length="2.0" maxSpeed="100.0" sigma="0.0" />
<vType accel="1.0" decel="5.0" id="Bus" length="12.0" maxSpeed="1.0" sigma="0.0" />

<route id="route0" edges="1-2 2-4"/>
<route id="route1" edges="1-3 3-2 2-4"/>
<route id="route2" edges="1-3 3-4"/>
<route id="route3" edges="4-2 2-1"/>


<vehicle depart="10" id="veh0" route="route0" type="Bus" />
<vehicle depart="10" id="veh1" route="route1" type="Car" />
<vehicle depart="30" id="veh2" route="route2" type="Car" />
<vehicle depart="30" id="veh3" route="route3" type="Bus" />

</routes>