<?xml version="1.0" encoding="UTF-8"?>

<!-- generated on 01/26/20 21:03:01 by Eclipse SUMO netedit Version 1.4.0
<configuration xmlns:xsi="http://www.w3.org/2001/XMLSchema-instance" xsi:noNamespaceSchemaLocation="http://sumo.dlr.de/xsd/netconvertConfiguration.xsd">

    <output>
        <output-file value="C:\SUMO_APP\you\3\ex1\net.net.xml"/>
    </output>

    <processing>
        <offset.disable-normalization value="true"/>
    </processing>

    <junctions>
        <no-turnarounds value="true"/>
    </junctions>

    <report>
        <aggregate-warnings value="5"/>
    </report>

</configuration>
-->

<net version="1.3" junctionCornerDetail="5" limitTurnSpeed="5.50" xmlns:xsi="http://www.w3.org/2001/XMLSchema-instance" xsi:noNamespaceSchemaLocation="http://sumo.dlr.de/xsd/net_file.xsd">

    <location netOffset="0.00,0.00" convBoundary="-21.49,24.64,109.27,69.45" origBoundary="10000000000.00,10000000000.00,-10000000000.00,-10000000000.00" projParameter="!"/>

    <edge id=":1_0" function="internal">
        <lane id=":1_0_0" index="0" speed="6.29" length="12.39" shape="-15.22,70.13 -18.99,69.59 -20.88,68.13 -20.87,65.75 -18.98,62.44"/>
    </edge>
    <edge id=":1_1" function="internal">
        <lane id=":1_1_0" index="0" speed="4.01" length="4.13" shape="-16.42,64.37 -17.05,65.47 -17.05,66.26 -16.43,66.75 -15.17,66.93"/>
    </edge>
    <edge id=":2_0" function="internal">
        <lane id=":2_0_0" index="0" speed="13.89" length="16.08" shape="49.75,71.01 33.66,70.89"/>
    </edge>
    <edge id=":2_1" function="internal">
        <lane id=":2_1_0" index="0" speed="11.67" length="5.66" shape="49.75,71.01 46.51,70.46 44.40,69.37"/>
    </edge>
    <edge id=":2_6" function="internal">
        <lane id=":2_6_0" index="0" speed="11.67" length="10.79" shape="44.40,69.37 43.25,68.78 39.97,65.95 36.68,61.97"/>
    </edge>
    <edge id=":2_2" function="internal">
        <lane id=":2_2_0" index="0" speed="10.58" length="13.42" shape="39.27,60.09 42.03,63.48 44.70,65.90 47.26,67.34 49.73,67.81"/>
    </edge>
    <edge id=":2_3" function="internal">
        <lane id=":2_3_0" index="0" speed="7.38" length="17.77" shape="39.27,60.09 41.92,64.90 41.87,68.30 39.12,70.29 33.66,70.89"/>
    </edge>
    <edge id=":2_4" function="internal">
        <lane id=":2_4_0" index="0" speed="5.56" length="9.41" shape="33.71,67.69 36.60,67.37 38.06,66.32 38.08,64.52 36.68,61.97"/>
    </edge>
    <edge id=":2_5" function="internal">
        <lane id=":2_5_0" index="0" speed="13.89" length="16.01" shape="33.71,67.69 49.73,67.81"/>
    </edge>
    <edge id=":3_0" function="internal">
        <lane id=":3_0_0" index="0" speed="7.59" length="15.53" shape="19.70,38.63 15.88,34.00 12.61,31.39 9.91,30.81 7.78,32.25"/>
    </edge>
    <edge id=":3_1" function="internal">
        <lane id=":3_1_0" index="0" speed="6.34" length="15.41" shape="19.70,38.63 18.45,34.75 19.75,31.36 22.80,29.42 26.86,29.86"/>
    </edge>
    <edge id=":3_2" function="internal">
        <lane id=":3_2_0" index="0" speed="5.53" length="11.28" shape="25.54,32.77 21.90,31.46 20.14,31.69 20.27,33.45 22.29,36.75"/>
    </edge>
    <edge id=":3_3" function="internal">
        <lane id=":3_3_0" index="0" speed="10.02" length="19.01" shape="25.54,32.77 19.35,30.44 14.33,29.57 10.48,30.18 7.78,32.25"/>
    </edge>
    <edge id=":3_4" function="internal">
        <lane id=":3_4_0" index="0" speed="11.05" length="23.32" shape="5.22,30.33 8.74,27.42 13.52,26.37 19.56,27.19 26.86,29.86"/>
    </edge>
    <edge id=":3_5" function="internal">
        <lane id=":3_5_0" index="0" speed="8.87" length="9.07" shape="5.22,30.33 8.65,27.59 12.64,27.75 13.21,28.13"/>
    </edge>
    <edge id=":3_6" function="internal">
        <lane id=":3_6_0" index="0" speed="8.87" length="12.63" shape="13.21,28.13 17.19,30.80 22.29,36.75"/>
    </edge>
    <edge id=":4_0" function="internal">
        <lane id=":4_0_0" index="0" speed="5.77" length="12.86" shape="96.67,61.56 99.10,63.90 99.42,66.94 97.88,69.59 94.71,70.73"/>
    </edge>
    <edge id=":4_1" function="internal">
        <lane id=":4_1_0" index="0" speed="4.71" length="7.93" shape="94.69,67.53 97.46,67.33 98.50,66.75 97.79,65.80 95.34,64.48"/>
    </edge>

    <edge id="1-2" from="1" to="2" priority="-1">
        <lane id="1-2_0" index="0" speed="13.89" length="48.89" shape="-15.17,66.93 33.71,67.69"/>
    </edge>
    <edge id="1-3" from="1" to="3" priority="-1">
        <lane id="1-3_0" index="0" speed="13.89" length="40.21" shape="-18.98,62.44 5.22,30.33"/>
    </edge>
    <edge id="2-1" from="2" to="1" priority="-1">
        <lane id="2-1_0" index="0" speed="13.89" length="48.89" shape="33.66,70.89 -15.22,70.13"/>
    </edge>
    <edge id="2-3" from="2" to="3" priority="-1">
        <lane id="2-3_0" index="0" speed="13.89" length="28.86" shape="36.68,61.97 19.70,38.63"/>
    </edge>
    <edge id="2-4" from="2" to="4" priority="-1">
        <lane id="2-4_0" index="0" speed="13.89" length="44.97" shape="49.73,67.81 94.69,67.53"/>
    </edge>
    <edge id="3-1" from="3" to="1" priority="-1">
        <lane id="3-1_0" index="0" speed="13.89" length="40.21" shape="7.78,32.25 -16.42,64.37"/>
    </edge>
    <edge id="3-2" from="3" to="2" priority="-1">
        <lane id="3-2_0" index="0" speed="13.89" length="28.86" shape="22.29,36.75 39.27,60.09"/>
    </edge>
    <edge id="3-4" from="3" to="4" priority="-1">
        <lane id="3-4_0" index="0" speed="13.89" length="76.67" shape="26.86,29.86 96.67,61.56"/>
    </edge>
    <edge id="4-2" from="4" to="2" priority="-1">
        <lane id="4-2_0" index="0" speed="13.89" length="44.97" shape="94.71,70.73 49.75,71.01"/>
    </edge>
    <edge id="4-3" from="4" to="3" priority="-1">
        <lane id="4-3_0" index="0" speed="13.89" length="76.67" shape="95.34,64.48 25.54,32.77"/>
    </edge>

    <junction id="1" type="priority" x="-21.49" y="68.43" incLanes="2-1_0 3-1_0" intLanes=":1_0_0 :1_1_0" shape="-15.24,71.73 -15.14,65.33 -20.25,61.48 -22.22,64.56 -23.06,67.09 -22.79,69.07 -21.39,70.50 -18.88,71.39">
        <request index="0" response="00" foes="00" cont="0"/>
        <request index="1" response="00" foes="00" cont="0"/>
    </junction>
    <junction id="2" type="priority" x="44.09" y="69.45" incLanes="4-2_0 3-2_0 1-2_0" intLanes=":2_0_0 :2_6_0 :2_2_0 :2_3_0 :2_4_0 :2_5_0" shape="49.76,72.61 49.72,66.21 46.92,65.44 45.43,64.46 43.87,63.09 42.25,61.32 40.56,59.15 35.38,62.92 36.25,64.71 36.15,65.33 35.70,65.76 34.89,66.02 33.74,66.09 33.64,72.49">
        <request index="0" response="000000" foes="001000" cont="0"/>
        <request index="1" response="110000" foes="111000" cont="1"/>
        <request index="2" response="100000" foes="100000" cont="0"/>
        <request index="3" response="100011" foes="100011" cont="0"/>
        <request index="4" response="000000" foes="000010" cont="0"/>
        <request index="5" response="000000" foes="001110" cont="0"/>
    </junction>
    <junction id="3" type="priority" x="11.51" y="24.64" incLanes="2-3_0 4-3_0 1-3_0" intLanes=":3_0_0 :3_1_0 :3_2_0 :3_3_0 :3_4_0 :3_6_0" shape="18.41,39.57 23.58,35.81 24.87,34.23 27.52,28.40 22.14,26.28 17.33,25.07 13.11,24.78 9.47,25.39 6.42,26.92 3.94,29.36 9.05,33.22 11.16,32.50 12.60,33.21 14.28,34.62 16.22,36.74">
        <request index="0" response="001000" foes="001000" cont="0"/>
        <request index="1" response="111000" foes="111000" cont="0"/>
        <request index="2" response="000000" foes="100000" cont="0"/>
        <request index="3" response="000000" foes="100011" cont="0"/>
        <request index="4" response="000000" foes="000010" cont="0"/>
        <request index="5" response="001100" foes="001110" cont="1"/>
    </junction>
    <junction id="4" type="priority" x="109.27" y="69.04" incLanes="3-4_0 2-4_0" intLanes=":4_0_0 :4_1_0" shape="97.33,60.11 94.68,65.93 94.72,72.33 102.89,71.94 107.96,70.89 109.94,69.19 108.83,66.82 104.62,63.79">
        <request index="0" response="00" foes="00" cont="0"/>
        <request index="1" response="00" foes="00" cont="0"/>
    </junction>

    <junction id=":2_6_0" type="internal" x="44.40" y="69.37" incLanes=":2_1_0 1-2_0" intLanes=":2_3_0 :2_4_0 :2_5_0"/>
    <junction id=":3_6_0" type="internal" x="13.21" y="28.13" incLanes=":3_5_0 4-3_0" intLanes=":3_1_0 :3_2_0 :3_3_0"/>

    <connection from="1-2" to="2-3" fromLane="0" toLane="0" via=":2_4_0" dir="r" state="M"/>
    <connection from="1-2" to="2-4" fromLane="0" toLane="0" via=":2_5_0" dir="s" state="M"/>
    <connection from="1-3" to="3-4" fromLane="0" toLane="0" via=":3_4_0" dir="L" state="M"/>
    <connection from="1-3" to="3-2" fromLane="0" toLane="0" via=":3_5_0" dir="l" state="m"/>
    <connection from="2-1" to="1-3" fromLane="0" toLane="0" via=":1_0_0" dir="l" state="M"/>
    <connection from="2-3" to="3-1" fromLane="0" toLane="0" via=":3_0_0" dir="r" state="m"/>
    <connection from="2-3" to="3-4" fromLane="0" toLane="0" via=":3_1_0" dir="l" state="m"/>
    <connection from="2-4" to="4-3" fromLane="0" toLane="0" via=":4_1_0" dir="r" state="M"/>
    <connection from="3-1" to="1-2" fromLane="0" toLane="0" via=":1_1_0" dir="r" state="M"/>
    <connection from="3-2" to="2-4" fromLane="0" toLane="0" via=":2_2_0" dir="r" state="m"/>
    <connection from="3-2" to="2-1" fromLane="0" toLane="0" via=":2_3_0" dir="l" state="m"/>
    <connection from="3-4" to="4-2" fromLane="0" toLane="0" via=":4_0_0" dir="l" state="M"/>
    <connection from="4-2" to="2-1" fromLane="0" toLane="0" via=":2_0_0" dir="s" state="M"/>
    <connection from="4-2" to="2-3" fromLane="0" toLane="0" via=":2_1_0" dir="l" state="m"/>
    <connection from="4-3" to="3-2" fromLane="0" toLane="0" via=":3_2_0" dir="r" state="M"/>
    <connection from="4-3" to="3-1" fromLane="0" toLane="0" via=":3_3_0" dir="R" state="M"/>

    <connection from=":1_0" to="1-3" fromLane="0" toLane="0" dir="l" state="M"/>
    <connection from=":1_1" to="1-2" fromLane="0" toLane="0" dir="r" state="M"/>
    <connection from=":2_0" to="2-1" fromLane="0" toLane="0" dir="s" state="M"/>
    <connection from=":2_1" to="2-3" fromLane="0" toLane="0" via=":2_6_0" dir="l" state="m"/>
    <connection from=":2_6" to="2-3" fromLane="0" toLane="0" dir="l" state="M"/>
    <connection from=":2_2" to="2-4" fromLane="0" toLane="0" dir="r" state="M"/>
    <connection from=":2_3" to="2-1" fromLane="0" toLane="0" dir="l" state="M"/>
    <connection from=":2_4" to="2-3" fromLane="0" toLane="0" dir="r" state="M"/>
    <connection from=":2_5" to="2-4" fromLane="0" toLane="0" dir="s" state="M"/>
    <connection from=":3_0" to="3-1" fromLane="0" toLane="0" dir="r" state="M"/>
    <connection from=":3_1" to="3-4" fromLane="0" toLane="0" dir="l" state="M"/>
    <connection from=":3_2" to="3-2" fromLane="0" toLane="0" dir="r" state="M"/>
    <connection from=":3_3" to="3-1" fromLane="0" toLane="0" dir="R" state="M"/>
    <connection from=":3_4" to="3-4" fromLane="0" toLane="0" dir="L" state="M"/>
    <connection from=":3_5" to="3-2" fromLane="0" toLane="0" via=":3_6_0" dir="l" state="m"/>
    <connection from=":3_6" to="3-2" fromLane="0" toLane="0" dir="l" state="M"/>
    <connection from=":4_0" to="4-2" fromLane="0" toLane="0" dir="l" state="M"/>
    <connection from=":4_1" to="4-3" fromLane="0" toLane="0" dir="r" state="M"/>

</net>
