<?xml version="1.0" encoding="UTF-8"?>

<!-- generated on 01/26/20 23:05:06 by Eclipse SUMO duarouter Version 1.4.0
<configuration xmlns:xsi="http://www.w3.org/2001/XMLSchema-instance" xsi:noNamespaceSchemaLocation="http://sumo.dlr.de/xsd/duarouterConfiguration.xsd">

    <input>
        <net-file value="net.net.xml"/>
        <route-files value="trips.trips.xml"/>
    </input>

    <output>
        <output-file value="route.rou.xml"/>
        <alternatives-output value="route.rou.alt.xml"/>
    </output>

    <time>
        <begin value="0"/>
        <end value="5.0"/>
    </time>

    <report>
        <no-warnings value="true"/>
        <ignore-errors value="true"/>
        <no-step-log value="true"/>
    </report>

</configuration>
-->

<routes xmlns:xsi="http://www.w3.org/2001/XMLSchema-instance" xsi:noNamespaceSchemaLocation="http://sumo.dlr.de/xsd/routes_file.xsd">
    <vehicle id="0" depart="0.00">
        <route edges="2-1 1-3 3-2 2-4 4-3 3-1 1-2"/>
    </vehicle>
    <vehicle id="1" depart="1.00">
        <route edges="3-4 4-2 2-3 3-1 1-2 2-4"/>
    </vehicle>
    <vehicle id="2" depart="2.00">
        <route edges="3-4 4-2 2-3 3-1 1-2 2-4 4-3"/>
    </vehicle>
    <vehicle id="3" depart="3.00">
        <route edges="2-1 1-3 3-4"/>
    </vehicle>
    <vehicle id="4" depart="4.00">
        <route edges="1-3 3-2 2-4 4-3 3-1"/>
    </vehicle>
</routes>
