<?xml version="1.0" encoding="UTF-8"?>
<!-- generated on 2020-01-26 23:05:06.155217 by randomTrips.py v1_4_0+0000-d7c9afb42e
  options: -n net.net.xml -r route.rou.xml -e 5 -l
-->
<routes xmlns:xsi="http://www.w3.org/2001/XMLSchema-instance" xsi:noNamespaceSchemaLocation="http://sumo.dlr.de/xsd/routes_file.xsd">
    <trip id="0" depart="0.00" from="2-1" to="1-2"/>
    <trip id="1" depart="1.00" from="3-4" to="2-4"/>
    <trip id="2" depart="2.00" from="3-4" to="4-3"/>
    <trip id="3" depart="3.00" from="2-1" to="3-4"/>
    <trip id="4" depart="4.00" from="1-3" to="3-1"/>
</routes>
