<?xml version="1.0" encoding="UTF-8"?>

<!-- generated on 01/27/20 00:56:17 by Eclipse SUMO netedit Version 1.4.0
<configuration xmlns:xsi="http://www.w3.org/2001/XMLSchema-instance" xsi:noNamespaceSchemaLocation="http://sumo.dlr.de/xsd/netconvertConfiguration.xsd">

    <output>
        <output-file value="C:\SUMO_APP\TUTOS\Driving_in_Circles\tst3\circles.net.xml"/>
    </output>

    <processing>
        <offset.disable-normalization value="true"/>
    </processing>

    <junctions>
        <no-turnarounds value="true"/>
    </junctions>

    <report>
        <aggregate-warnings value="5"/>
    </report>

</configuration>
-->

<net version="1.3" junctionCornerDetail="5" limitTurnSpeed="5.50" xmlns:xsi="http://www.w3.org/2001/XMLSchema-instance" xsi:noNamespaceSchemaLocation="http://sumo.dlr.de/xsd/net_file.xsd">

    <location netOffset="0.00,0.00" convBoundary="-4.18,13.85,97.86,89.61" origBoundary="10000000000.00,10000000000.00,-10000000000.00,-10000000000.00" projParameter="!"/>

    <edge id=":1_0" function="internal">
        <lane id=":1_0_0" index="0" speed="4.40" length="1.05" shape="8.13,75.28 8.28,75.55 8.42,75.72 8.60,75.84 8.87,75.98"/>
    </edge>
    <edge id=":2_0" function="internal">
        <lane id=":2_0_0" index="0" speed="13.89" length="0.86" shape="34.80,87.79 35.03,87.90 35.20,87.94 35.38,87.95 35.63,87.93"/>
    </edge>
    <edge id=":3_0" function="internal">
        <lane id=":3_0_0" index="0" speed="4.16" length="1.31" shape="79.20,83.28 79.53,83.21 79.82,83.09 80.08,82.90 80.31,82.65"/>
    </edge>
    <edge id=":4_0" function="internal">
        <lane id=":4_0_0" index="0" speed="4.07" length="1.52" shape="95.59,62.27 95.79,61.93 95.90,61.58 95.92,61.21 95.84,60.83"/>
    </edge>
    <edge id=":5_0" function="internal">
        <lane id=":5_0_0" index="0" speed="4.09" length="1.46" shape="86.42,31.10 86.27,30.76 86.06,30.47 85.79,30.25 85.45,30.08"/>
    </edge>
    <edge id=":6_0" function="internal">
        <lane id=":6_0_0" index="0" speed="4.40" length="1.05" shape="46.59,15.72 46.29,15.62 46.08,15.59 45.86,15.61 45.57,15.69"/>
    </edge>
    <edge id=":7_0" function="internal">
        <lane id=":7_0_0" index="0" speed="4.10" length="1.45" shape="9.39,26.74 9.05,26.88 8.76,27.09 8.54,27.36 8.37,27.69"/>
    </edge>
    <edge id=":8_0" function="internal">
        <lane id=":8_0_0" index="0" speed="4.13" length="1.38" shape="-2.15,55.01 -2.25,55.35 -2.26,55.68 -2.21,56.01 -2.07,56.34"/>
    </edge>

    <edge id="1-2" from="1" to="2" priority="-1">
        <lane id="1-2_0" index="0" speed="13.89" length="28.49" shape="8.87,75.98 34.80,87.79"/>
    </edge>
    <edge id="2-3" from="2" to="3" priority="-1">
        <lane id="2-3_0" index="0" speed="13.89" length="43.82" shape="35.63,87.93 79.20,83.28"/>
    </edge>
    <edge id="3-4" from="3" to="4" priority="-1">
        <lane id="3-4_0" index="0" speed="13.89" length="25.47" shape="80.31,82.65 95.59,62.27"/>
    </edge>
    <edge id="4-5" from="4" to="5" priority="-1">
        <lane id="4-5_0" index="0" speed="13.89" length="31.18" shape="95.84,60.83 86.42,31.10"/>
    </edge>
    <edge id="5-6" from="5" to="6" priority="-1">
        <lane id="5-6_0" index="0" speed="13.89" length="41.43" shape="85.45,30.08 46.59,15.72"/>
    </edge>
    <edge id="6-7" from="6" to="7" priority="-1">
        <lane id="6-7_0" index="0" speed="13.89" length="37.82" shape="45.57,15.69 9.39,26.74"/>
    </edge>
    <edge id="7-8" from="7" to="8" priority="-1">
        <lane id="7-8_0" index="0" speed="13.89" length="29.27" shape="8.37,27.69 -2.15,55.01"/>
    </edge>
    <edge id="8-1" from="8" to="1" priority="-1">
        <lane id="8-1_0" index="0" speed="13.89" length="21.51" shape="-2.07,56.34 8.13,75.28"/>
    </edge>

    <junction id="1" type="priority" x="7.23" y="76.99" incLanes="8-1_0" intLanes=":1_0_0" shape="8.21,77.43 9.54,74.52 6.72,76.04 7.11,76.70 7.30,76.91 7.52,77.08 7.81,77.24">
        <request index="0" response="0" foes="0" cont="0"/>
    </junction>
    <junction id="2" type="priority" x="34.93" y="89.61" incLanes="1-2_0" intLanes=":2_0_0" shape="35.80,89.52 35.46,86.34 34.13,89.25 34.72,89.50 34.94,89.55 35.16,89.57 35.44,89.56">
        <request index="0" response="0" foes="0" cont="0"/>
    </junction>
    <junction id="3" type="priority" x="80.75" y="84.73" incLanes="2-3_0" intLanes=":3_0_0" shape="81.59,83.61 79.03,81.69 79.37,84.87 80.23,84.67 80.62,84.48 80.97,84.25 81.30,83.96">
        <request index="0" response="0" foes="0" cont="0"/>
    </junction>
    <junction id="4" type="priority" x="97.86" y="61.91" incLanes="3-4_0" intLanes=":4_0_0" shape="97.36,60.35 94.31,61.31 96.87,63.23 97.37,62.33 97.49,61.85 97.53,61.36 97.49,60.86">
        <request index="0" response="0" foes="0" cont="0"/>
    </junction>
    <junction id="5" type="priority" x="87.47" y="29.12" incLanes="4-5_0" intLanes=":5_0_0" shape="84.90,31.58 87.95,30.62 87.52,29.73 87.23,29.36 86.87,29.05 86.47,28.79 86.01,28.58">
        <request index="0" response="0" foes="0" cont="0"/>
    </junction>
    <junction id="6" type="priority" x="46.13" y="13.85" incLanes="5-6_0" intLanes=":6_0_0" shape="46.03,17.22 47.14,14.22 46.40,13.98 46.13,13.95 45.85,13.97 45.52,14.04 45.10,14.16">
        <request index="0" response="0" foes="0" cont="0"/>
    </junction>
    <junction id="7" type="priority" x="7.43" y="25.66" incLanes="6-7_0" intLanes=":7_0_0" shape="9.86,28.27 8.93,25.21 8.03,25.62 7.67,25.91 7.35,26.26 7.09,26.66 6.87,27.12">
        <request index="0" response="0" foes="0" cont="0"/>
    </junction>
    <junction id="8" type="priority" x="-4.18" y="55.80" incLanes="7-8_0" intLanes=":8_0_0" shape="-3.48,57.10 -0.66,55.58 -3.65,54.43 -3.86,55.34 -3.87,55.79 -3.81,56.23 -3.68,56.67">
        <request index="0" response="0" foes="0" cont="0"/>
    </junction>

    <connection from="1-2" to="2-3" fromLane="0" toLane="0" via=":2_0_0" dir="s" state="M"/>
    <connection from="2-3" to="3-4" fromLane="0" toLane="0" via=":3_0_0" dir="r" state="M"/>
    <connection from="3-4" to="4-5" fromLane="0" toLane="0" via=":4_0_0" dir="r" state="M"/>
    <connection from="4-5" to="5-6" fromLane="0" toLane="0" via=":5_0_0" dir="r" state="M"/>
    <connection from="5-6" to="6-7" fromLane="0" toLane="0" via=":6_0_0" dir="s" state="M"/>
    <connection from="6-7" to="7-8" fromLane="0" toLane="0" via=":7_0_0" dir="r" state="M"/>
    <connection from="7-8" to="8-1" fromLane="0" toLane="0" via=":8_0_0" dir="r" state="M"/>
    <connection from="8-1" to="1-2" fromLane="0" toLane="0" via=":1_0_0" dir="s" state="M"/>

    <connection from=":1_0" to="1-2" fromLane="0" toLane="0" dir="s" state="M"/>
    <connection from=":2_0" to="2-3" fromLane="0" toLane="0" dir="s" state="M"/>
    <connection from=":3_0" to="3-4" fromLane="0" toLane="0" dir="r" state="M"/>
    <connection from=":4_0" to="4-5" fromLane="0" toLane="0" dir="r" state="M"/>
    <connection from=":5_0" to="5-6" fromLane="0" toLane="0" dir="r" state="M"/>
    <connection from=":6_0" to="6-7" fromLane="0" toLane="0" dir="s" state="M"/>
    <connection from=":7_0" to="7-8" fromLane="0" toLane="0" dir="r" state="M"/>
    <connection from=":8_0" to="8-1" fromLane="0" toLane="0" dir="r" state="M"/>

</net>
