<?xml version="1.0" encoding="UTF-8"?>

<!-- generated on 09/05/2020 02:15:35 by Eclipse SUMO netedit Version 1.5.0
<configuration xmlns:xsi="http://www.w3.org/2001/XMLSchema-instance" xsi:noNamespaceSchemaLocation="http://sumo.dlr.de/xsd/netconvertConfiguration.xsd">

    <input>
        <sumo-net-file value="demo.net.xml"/>
    </input>

    <output>
        <output-file value="demo.net.xml"/>
    </output>

    <processing>
        <geometry.min-radius.fix.railways value="false"/>
        <geometry.max-grade.fix value="false"/>
        <offset.disable-normalization value="true"/>
        <lefthand value="false"/>
    </processing>

    <junctions>
        <no-turnarounds value="true"/>
        <junctions.corner-detail value="0"/>
        <junctions.limit-turn-speed value="-1"/>
        <rectangular-lane-cut value="false"/>
    </junctions>

    <pedestrian>
        <walkingareas value="false"/>
    </pedestrian>

    <report>
        <aggregate-warnings value="5"/>
    </report>

</configuration>
-->

<net version="1.3" xmlns:xsi="http://www.w3.org/2001/XMLSchema-instance" xsi:noNamespaceSchemaLocation="http://sumo.dlr.de/xsd/net_file.xsd">

    <location netOffset="0.00,0.00" convBoundary="-106.04,-48.37,143.48,139.06" origBoundary="-10000000000.00,-10000000000.00,10000000000.00,10000000000.00" projParameter="!"/>

    <edge id=":gneJ10_0" function="internal">
        <lane id=":gneJ10_0_0" index="0" speed="13.89" length="3.48" shape="-13.39,-40.02 -13.73,-40.05 -13.97,-40.02 -14.19,-39.93 -14.47,-39.75"/>
        <lane id=":gneJ10_0_1" index="1" speed="13.89" length="3.48" shape="-13.03,-43.20 -14.05,-43.28 -14.76,-43.22 -15.42,-42.94 -16.28,-42.39"/>
        <lane id=":gneJ10_0_2" index="2" speed="13.89" length="3.48" shape="-12.67,-46.38 -14.36,-46.52 -15.55,-46.41 -16.66,-45.95 -18.09,-45.03"/>
    </edge>
    <edge id=":gneJ11_0" function="internal">
        <lane id=":gneJ11_0_0" index="0" speed="13.89" length="2.87" shape="-76.78,2.87 -77.01,3.03 -77.15,3.17 -77.26,3.33 -77.37,3.59"/>
        <lane id=":gneJ11_0_1" index="1" speed="13.89" length="2.87" shape="-78.59,0.22 -79.28,0.71 -79.70,1.12 -80.01,1.63 -80.34,2.40"/>
        <lane id=":gneJ11_0_2" index="2" speed="13.89" length="2.87" shape="-80.40,-2.42 -81.54,-1.60 -82.25,-0.92 -82.76,-0.08 -83.31,1.21"/>
    </edge>
    <edge id=":gneJ4_0" function="internal">
        <lane id=":gneJ4_0_0" index="0" speed="13.89" length="9.14" shape="-91.74,39.51 -92.38,42.11 -91.92,43.94 -90.36,45.02 -87.70,45.33"/>
    </edge>
    <edge id=":gneJ4_1" function="internal">
        <lane id=":gneJ4_1_0" index="0" speed="13.89" length="12.64" shape="-91.74,39.51 -92.86,43.52 -92.55,46.36 -90.81,48.03 -87.64,48.53"/>
    </edge>
    <edge id=":gneJ4_2" function="internal">
        <lane id=":gneJ4_2_0" index="0" speed="13.89" length="16.22" shape="-91.74,39.51 -93.34,44.93 -93.18,48.77 -91.26,51.04 -87.57,51.73"/>
    </edge>
    <edge id=":gneJ4_3" function="internal">
        <lane id=":gneJ4_3_0" index="0" speed="13.89" length="18.91" shape="-91.74,39.51 -93.55,45.25 -94.07,50.15 -93.28,54.21 -91.20,57.42"/>
    </edge>
    <edge id=":gneJ4_4" function="internal">
        <lane id=":gneJ4_4_0" index="0" speed="13.89" length="22.61" shape="-94.71,38.32 -96.77,45.01 -97.26,50.79 -96.16,55.68 -93.48,59.66"/>
    </edge>
    <edge id=":gneJ4_5" function="internal">
        <lane id=":gneJ4_5_0" index="0" speed="13.89" length="26.32" shape="-97.68,37.13 -99.99,44.76 -100.44,51.43 -99.03,57.14 -95.76,61.90"/>
    </edge>
    <edge id=":gneJ5_0" function="internal">
        <lane id=":gneJ5_0_0" index="0" speed="13.89" length="2.50" shape="-38.85,110.73 -38.67,110.90 -38.54,111.00 -38.38,111.07 -38.15,111.14"/>
        <lane id=":gneJ5_0_1" index="1" speed="13.89" length="2.50" shape="-41.13,112.97 -40.61,113.49 -40.20,113.80 -39.73,114.01 -39.02,114.22"/>
        <lane id=":gneJ5_0_2" index="2" speed="13.89" length="2.50" shape="-43.41,115.21 -42.54,116.07 -41.86,116.59 -41.08,116.94 -39.90,117.30"/>
    </edge>
    <edge id=":gneJ6_0" function="internal">
        <lane id=":gneJ6_0_0" index="0" speed="13.89" length="3.27" shape="29.45,130.45 29.76,130.53 29.98,130.55 30.20,130.50 30.50,130.39"/>
        <lane id=":gneJ6_0_1" index="1" speed="13.89" length="3.27" shape="28.57,133.53 29.50,133.77 30.17,133.82 30.83,133.69 31.73,133.34"/>
        <lane id=":gneJ6_0_2" index="2" speed="13.89" length="3.27" shape="27.69,136.60 29.24,137.00 30.36,137.10 31.46,136.87 32.95,136.30"/>
    </edge>
    <edge id=":gneJ7_0" function="internal">
        <lane id=":gneJ7_0_0" index="0" speed="13.89" length="1.48" shape="120.66,93.04 120.99,92.85 121.26,92.62 121.46,92.32 121.59,91.96"/>
    </edge>
    <edge id=":gneJ7_1" function="internal">
        <lane id=":gneJ7_1_0" index="0" speed="13.89" length="4.43" shape="121.88,95.99 122.89,95.45 123.69,94.73 124.29,93.84 124.69,92.77"/>
    </edge>
    <edge id=":gneJ7_2" function="internal">
        <lane id=":gneJ7_2_0" index="0" speed="13.89" length="7.39" shape="123.11,98.95 124.78,98.04 126.12,96.84 127.12,95.36 127.79,93.58"/>
    </edge>
    <edge id=":gneJ8_0" function="internal">
        <lane id=":gneJ8_0_0" index="0" speed="13.89" length="1.48" shape="134.53,42.39 134.59,42.01 134.56,41.65 134.44,41.31 134.23,40.99"/>
    </edge>
    <edge id=":gneJ8_1" function="internal">
        <lane id=":gneJ8_1_0" index="0" speed="13.89" length="4.45" shape="137.62,43.20 137.80,42.07 137.71,40.99 137.35,39.97 136.74,39.00"/>
    </edge>
    <edge id=":gneJ8_2" function="internal">
        <lane id=":gneJ8_2_0" index="0" speed="13.89" length="7.42" shape="140.72,44.01 141.01,42.12 140.86,40.32 140.27,38.62 139.24,37.01"/>
    </edge>
    <edge id=":gneJ9_0" function="internal">
        <lane id=":gneJ9_0_0" index="0" speed="13.89" length="1.26" shape="78.53,-29.11 78.31,-29.34 78.06,-29.51 77.78,-29.64 77.46,-29.70"/>
    </edge>
    <edge id=":gneJ9_1" function="internal">
        <lane id=":gneJ9_1_0" index="0" speed="13.89" length="3.77" shape="81.04,-31.10 80.37,-31.79 79.62,-32.32 78.77,-32.68 77.82,-32.88"/>
    </edge>
    <edge id=":gneJ9_2" function="internal">
        <lane id=":gneJ9_2_0" index="0" speed="13.89" length="6.29" shape="83.54,-33.09 82.44,-34.25 81.17,-35.13 79.75,-35.73 78.18,-36.06"/>
    </edge>

    <edge id="e1" from="gneJ4" to="gneJ5" priority="1">
        <lane id="e1_0" index="0" speed="13.89" length="74.72" shape="-91.20,57.42 -38.85,110.73"/>
        <lane id="e1_1" index="1" speed="13.89" length="74.72" shape="-93.48,59.66 -41.13,112.97"/>
        <lane id="e1_2" index="2" speed="13.89" length="74.72" shape="-95.76,61.90 -43.41,115.21"/>
    </edge>
    <edge id="e2" from="gneJ5" to="gneJ6" priority="1">
        <lane id="e2_0" index="0" speed="13.89" length="70.30" shape="-38.15,111.14 29.45,130.45"/>
        <lane id="e2_1" index="1" speed="13.89" length="70.30" shape="-39.02,114.22 28.57,133.53"/>
        <lane id="e2_2" index="2" speed="13.89" length="70.30" shape="-39.90,117.30 27.69,136.60"/>
    </edge>
    <edge id="e3" from="gneJ6" to="gneJ7" priority="1">
        <lane id="e3_0" index="0" speed="13.89" length="97.59" shape="30.50,130.39 120.66,93.04"/>
        <lane id="e3_1" index="1" speed="13.89" length="97.59" shape="31.73,133.34 121.88,95.99"/>
        <lane id="e3_2" index="2" speed="13.89" length="97.59" shape="32.95,136.30 123.11,98.95"/>
    </edge>
    <edge id="e4" from="gneJ7" to="gneJ8" priority="1">
        <lane id="e4_0" index="0" speed="13.89" length="51.23" shape="121.59,91.96 134.53,42.39"/>
        <lane id="e4_1" index="1" speed="13.89" length="51.23" shape="124.69,92.77 137.62,43.20"/>
        <lane id="e4_2" index="2" speed="13.89" length="51.23" shape="127.79,93.58 140.72,44.01"/>
    </edge>
    <edge id="e5" from="gneJ8" to="gneJ9" priority="1">
        <lane id="e5_0" index="0" speed="13.89" length="89.53" shape="134.23,40.99 78.53,-29.11"/>
        <lane id="e5_1" index="1" speed="13.89" length="89.53" shape="136.74,39.00 81.04,-31.10"/>
        <lane id="e5_2" index="2" speed="13.89" length="89.53" shape="139.24,37.01 83.54,-33.09"/>
    </edge>
    <edge id="e6" from="gneJ9" to="gneJ10" priority="1">
        <lane id="e6_0" index="0" speed="13.89" length="91.44" shape="77.46,-29.70 -13.39,-40.02"/>
        <lane id="e6_1" index="1" speed="13.89" length="91.44" shape="77.82,-32.88 -13.03,-43.20"/>
        <lane id="e6_2" index="2" speed="13.89" length="91.44" shape="78.18,-36.06 -12.67,-46.38"/>
    </edge>
    <edge id="e7" from="gneJ10" to="gneJ11" priority="1">
        <lane id="e7_0" index="0" speed="13.89" length="75.49" shape="-14.47,-39.75 -76.78,2.87"/>
        <lane id="e7_1" index="1" speed="13.89" length="75.49" shape="-16.28,-42.39 -78.59,0.22"/>
        <lane id="e7_2" index="2" speed="13.89" length="75.49" shape="-18.09,-45.03 -80.40,-2.42"/>
    </edge>
    <edge id="e8" from="gneJ11" to="gneJ4" priority="1">
        <lane id="e8_0" index="0" speed="13.89" length="38.68" shape="-77.37,3.59 -91.74,39.51"/>
        <lane id="e8_1" index="1" speed="13.89" length="38.68" shape="-80.34,2.40 -94.71,38.32"/>
        <lane id="e8_2" index="2" speed="13.89" length="38.68" shape="-83.31,1.21 -97.68,37.13"/>
    </edge>
    <edge id="e9" from="gneJ4" to="gneJ12" priority="1">
        <lane id="e9_0" index="0" speed="13.89" length="91.28" shape="-87.70,45.33 3.55,43.40"/>
        <lane id="e9_1" index="1" speed="13.89" length="91.28" shape="-87.64,48.53 3.62,46.60"/>
        <lane id="e9_2" index="2" speed="13.89" length="91.28" shape="-87.57,51.73 3.69,49.80"/>
    </edge>

    <junction id="gneJ10" type="priority" x="-16.04" y="-48.37" incLanes="e6_0 e6_1 e6_2" intLanes=":gneJ10_0_0 :gneJ10_0_1 :gneJ10_0_2" shape="-13.57,-38.43 -12.49,-47.97 -18.99,-46.35">
        <request index="0" response="000" foes="000" cont="0"/>
        <request index="1" response="000" foes="000" cont="0"/>
        <request index="2" response="000" foes="000" cont="0"/>
    </junction>
    <junction id="gneJ11" type="priority" x="-83.71" y="-2.09" incLanes="e7_0 e7_1 e7_2" intLanes=":gneJ11_0_0 :gneJ11_0_1 :gneJ11_0_2" shape="-75.88,4.19 -81.30,-3.74 -84.79,0.62">
        <request index="0" response="000" foes="000" cont="0"/>
        <request index="1" response="000" foes="000" cont="0"/>
        <request index="2" response="000" foes="000" cont="0"/>
    </junction>
    <junction id="gneJ12" type="dead_end" x="3.72" y="51.40" incLanes="e9_0 e9_1 e9_2" intLanes="" shape="3.52,41.80 3.72,51.40"/>
    <junction id="gneJ4" type="priority" x="-106.04" y="53.72" incLanes="e8_0 e8_1 e8_2" intLanes=":gneJ4_0_0 :gneJ4_1_0 :gneJ4_2_0 :gneJ4_3_0 :gneJ4_4_0 :gneJ4_5_0" shape="-96.91,63.02 -90.06,56.30 -87.54,53.33 -87.74,43.73 -90.25,40.10 -99.16,36.54">
        <request index="0" response="000000" foes="000000" cont="0"/>
        <request index="1" response="000000" foes="000000" cont="0"/>
        <request index="2" response="000000" foes="000000" cont="0"/>
        <request index="3" response="000000" foes="000000" cont="0"/>
        <request index="4" response="000000" foes="000000" cont="0"/>
        <request index="5" response="000000" foes="000000" cont="0"/>
    </junction>
    <junction id="gneJ5" type="priority" x="-42.78" y="118.14" incLanes="e1_0 e1_1 e1_2" intLanes=":gneJ5_0_0 :gneJ5_0_1 :gneJ5_0_2" shape="-40.34,118.84 -37.71,109.61 -44.56,116.33">
        <request index="0" response="000" foes="000" cont="0"/>
        <request index="1" response="000" foes="000" cont="0"/>
        <request index="2" response="000" foes="000" cont="0"/>
    </junction>
    <junction id="gneJ6" type="priority" x="30.47" y="139.06" incLanes="e2_0 e2_1 e2_2" intLanes=":gneJ6_0_0 :gneJ6_0_1 :gneJ6_0_2" shape="33.56,137.78 29.89,128.91 27.25,138.14">
        <request index="0" response="000" foes="000" cont="0"/>
        <request index="1" response="000" foes="000" cont="0"/>
        <request index="2" response="000" foes="000" cont="0"/>
    </junction>
    <junction id="gneJ7" type="priority" x="128.13" y="98.60" incLanes="e3_0 e3_1 e3_2" intLanes=":gneJ7_0_0 :gneJ7_1_0 :gneJ7_2_0" shape="129.34,93.98 120.05,91.56 123.72,100.43">
        <request index="0" response="000" foes="000" cont="0"/>
        <request index="1" response="000" foes="000" cont="0"/>
        <request index="2" response="000" foes="000" cont="0"/>
    </junction>
    <junction id="gneJ8" type="priority" x="143.48" y="39.77" incLanes="e4_0 e4_1 e4_2" intLanes=":gneJ8_0_0 :gneJ8_1_0 :gneJ8_2_0" shape="140.50,36.01 132.98,41.99 142.27,44.41">
        <request index="0" response="000" foes="000" cont="0"/>
        <request index="1" response="000" foes="000" cont="0"/>
        <request index="2" response="000" foes="000" cont="0"/>
    </junction>
    <junction id="gneJ9" type="priority" x="82.32" y="-37.20" incLanes="e5_0 e5_1 e5_2" intLanes=":gneJ9_0_0 :gneJ9_1_0 :gneJ9_2_0" shape="77.28,-28.11 84.80,-34.08 78.36,-37.65">
        <request index="0" response="000" foes="000" cont="0"/>
        <request index="1" response="000" foes="000" cont="0"/>
        <request index="2" response="000" foes="000" cont="0"/>
    </junction>

    <connection from="e1" to="e2" fromLane="0" toLane="0" via=":gneJ5_0_0" dir="s" state="M"/>
    <connection from="e1" to="e2" fromLane="1" toLane="1" via=":gneJ5_0_1" dir="s" state="M"/>
    <connection from="e1" to="e2" fromLane="2" toLane="2" via=":gneJ5_0_2" dir="s" state="M"/>
    <connection from="e2" to="e3" fromLane="0" toLane="0" via=":gneJ6_0_0" dir="s" state="M"/>
    <connection from="e2" to="e3" fromLane="1" toLane="1" via=":gneJ6_0_1" dir="s" state="M"/>
    <connection from="e2" to="e3" fromLane="2" toLane="2" via=":gneJ6_0_2" dir="s" state="M"/>
    <connection from="e3" to="e4" fromLane="0" toLane="0" via=":gneJ7_0_0" dir="r" state="M"/>
    <connection from="e3" to="e4" fromLane="1" toLane="1" via=":gneJ7_1_0" dir="r" state="M"/>
    <connection from="e3" to="e4" fromLane="2" toLane="2" via=":gneJ7_2_0" dir="r" state="M"/>
    <connection from="e4" to="e5" fromLane="0" toLane="0" via=":gneJ8_0_0" dir="r" state="M"/>
    <connection from="e4" to="e5" fromLane="1" toLane="1" via=":gneJ8_1_0" dir="r" state="M"/>
    <connection from="e4" to="e5" fromLane="2" toLane="2" via=":gneJ8_2_0" dir="r" state="M"/>
    <connection from="e5" to="e6" fromLane="0" toLane="0" via=":gneJ9_0_0" dir="r" state="M"/>
    <connection from="e5" to="e6" fromLane="1" toLane="1" via=":gneJ9_1_0" dir="r" state="M"/>
    <connection from="e5" to="e6" fromLane="2" toLane="2" via=":gneJ9_2_0" dir="r" state="M"/>
    <connection from="e6" to="e7" fromLane="0" toLane="0" via=":gneJ10_0_0" dir="s" state="M"/>
    <connection from="e6" to="e7" fromLane="1" toLane="1" via=":gneJ10_0_1" dir="s" state="M"/>
    <connection from="e6" to="e7" fromLane="2" toLane="2" via=":gneJ10_0_2" dir="s" state="M"/>
    <connection from="e7" to="e8" fromLane="0" toLane="0" via=":gneJ11_0_0" dir="s" state="M"/>
    <connection from="e7" to="e8" fromLane="1" toLane="1" via=":gneJ11_0_1" dir="s" state="M"/>
    <connection from="e7" to="e8" fromLane="2" toLane="2" via=":gneJ11_0_2" dir="s" state="M"/>
    <connection from="e8" to="e9" fromLane="0" toLane="0" via=":gneJ4_0_0" dir="r" state="M"/>
    <connection from="e8" to="e9" fromLane="0" toLane="1" via=":gneJ4_1_0" dir="r" state="M"/>
    <connection from="e8" to="e9" fromLane="0" toLane="2" via=":gneJ4_2_0" dir="r" state="M"/>
    <connection from="e8" to="e1" fromLane="0" toLane="0" via=":gneJ4_3_0" dir="R" state="M"/>
    <connection from="e8" to="e1" fromLane="1" toLane="1" via=":gneJ4_4_0" dir="R" state="M"/>
    <connection from="e8" to="e1" fromLane="2" toLane="2" via=":gneJ4_5_0" dir="R" state="M"/>

    <connection from=":gneJ10_0" to="e7" fromLane="0" toLane="0" dir="s" state="M"/>
    <connection from=":gneJ10_0" to="e7" fromLane="1" toLane="1" dir="s" state="M"/>
    <connection from=":gneJ10_0" to="e7" fromLane="2" toLane="2" dir="s" state="M"/>
    <connection from=":gneJ11_0" to="e8" fromLane="0" toLane="0" dir="s" state="M"/>
    <connection from=":gneJ11_0" to="e8" fromLane="1" toLane="1" dir="s" state="M"/>
    <connection from=":gneJ11_0" to="e8" fromLane="2" toLane="2" dir="s" state="M"/>
    <connection from=":gneJ4_0" to="e9" fromLane="0" toLane="0" dir="r" state="M"/>
    <connection from=":gneJ4_1" to="e9" fromLane="0" toLane="1" dir="r" state="M"/>
    <connection from=":gneJ4_2" to="e9" fromLane="0" toLane="2" dir="r" state="M"/>
    <connection from=":gneJ4_3" to="e1" fromLane="0" toLane="0" dir="R" state="M"/>
    <connection from=":gneJ4_4" to="e1" fromLane="0" toLane="1" dir="R" state="M"/>
    <connection from=":gneJ4_5" to="e1" fromLane="0" toLane="2" dir="R" state="M"/>
    <connection from=":gneJ5_0" to="e2" fromLane="0" toLane="0" dir="s" state="M"/>
    <connection from=":gneJ5_0" to="e2" fromLane="1" toLane="1" dir="s" state="M"/>
    <connection from=":gneJ5_0" to="e2" fromLane="2" toLane="2" dir="s" state="M"/>
    <connection from=":gneJ6_0" to="e3" fromLane="0" toLane="0" dir="s" state="M"/>
    <connection from=":gneJ6_0" to="e3" fromLane="1" toLane="1" dir="s" state="M"/>
    <connection from=":gneJ6_0" to="e3" fromLane="2" toLane="2" dir="s" state="M"/>
    <connection from=":gneJ7_0" to="e4" fromLane="0" toLane="0" dir="r" state="M"/>
    <connection from=":gneJ7_1" to="e4" fromLane="0" toLane="1" dir="r" state="M"/>
    <connection from=":gneJ7_2" to="e4" fromLane="0" toLane="2" dir="r" state="M"/>
    <connection from=":gneJ8_0" to="e5" fromLane="0" toLane="0" dir="r" state="M"/>
    <connection from=":gneJ8_1" to="e5" fromLane="0" toLane="1" dir="r" state="M"/>
    <connection from=":gneJ8_2" to="e5" fromLane="0" toLane="2" dir="r" state="M"/>
    <connection from=":gneJ9_0" to="e6" fromLane="0" toLane="0" dir="r" state="M"/>
    <connection from=":gneJ9_1" to="e6" fromLane="0" toLane="1" dir="r" state="M"/>
    <connection from=":gneJ9_2" to="e6" fromLane="0" toLane="2" dir="r" state="M"/>

</net>
